### 
### Created by X-TOOL on Fri Sep 26 17:34:26 2014
### 

@<TRIPOS>MOLECULE
1v48_ligand
   34    35     1     0     0
SMALL
GAST_HUCK


@<TRIPOS>ATOM
      1 N9         72.3650   46.4880   50.0860 N.pl3     1 HA1        -0.2391
      2 C8         71.1030   46.9890   50.3430 C.2       1 HA1         0.0932
      3 N7         71.0510   48.2700   50.0890 N.2       1 HA1        -0.3236
      4 C5         72.2950   48.6540   49.6530 C.2       1 HA1         0.0925
      5 C6         72.8050   49.9450   49.2380 C.2       1 HA1         0.2135
      6 O6         72.1750   51.0160   49.1910 O.2       1 HA1        -0.4091
      7 N1         74.1800   49.9120   48.8540 N.am      1 HA1        -0.1839
      8 C2         74.9780   48.7450   48.8730 C.2       1 HA1         0.2340
      9 N2         76.2840   48.8480   48.4800 N.pl3     1 HA1        -0.2807
     10 N3         74.4860   47.5150   49.2700 N.2       1 HA1        -0.2765
     11 C4         73.1450   47.5500   49.6440 C.2       1 HA1         0.1135
     12 C10        72.6500   45.1320   50.2120 C.3       1 HA1         0.0584
     13 C11        73.4070   44.8400   51.5340 C.3       1 HA1        -0.0250
     14 C12        74.3640   43.6420   51.3350 C.3       1 HA1        -0.0437
     15 C13        73.6010   42.3740   50.8350 C.3       1 HA1         0.0270
     16 C14        74.4710   41.0990   50.9880 C.3       1 HA1         0.3142
     17 F15        74.4940   40.7400   52.2830 F         1 HA1        -0.1865
     18 F16        75.7270   41.3680   50.5970 F         1 HA1        -0.1865
     19 P          73.9180   39.9670   50.1360 P.3       1 HA1         0.1320
     20 O2P        72.4530   39.8050   50.3640 O.co2     1 HA1        -0.5584
     21 O1P        74.1700   40.2640   48.6970 O.co2     1 HA1        -0.5584
     22 O3P        74.6210   38.6860   50.4980 O.co2     1 HA1        -0.5584
     23 H1         70.2652   46.3966   50.7078 H         1 HA1         0.1178
     24 H2         74.6043   50.7662   48.5534 H         1 HA1         0.2515
     25 H3         76.8900   48.0151   48.4832 H         1 HA1         0.1897
     26 H4         76.6615   49.7584   48.1809 H         1 HA1         0.1897
     27 H5         73.2744   44.8159   49.3634 H         1 HA1         0.0615
     28 H6         71.7075   44.5648   50.2051 H         1 HA1         0.0615
     29 H7         72.6814   44.6004   52.3252 H         1 HA1         0.0292
     30 H8         73.9881   45.7272   51.8258 H         1 HA1         0.0292
     31 H9         74.8508   43.4107   52.2939 H         1 HA1         0.0268
     32 H10        75.1281   43.9149   50.5923 H         1 HA1         0.0268
     33 H11        73.3418   42.5063   49.7742 H         1 HA1         0.0338
     34 H12        72.6806   42.2532   51.4251 H         1 HA1         0.0338
@<TRIPOS>BOND
     1    1    2 1  
     2    1   11 1  
     3    1   12 1  
     4    2    3 2  
     5    3    4 1  
     6    4    5 1  
     7    4   11 2  
     8    5    6 2  
     9    5    7 am 
    10    7    8 1  
    11    8    9 1  
    12    8   10 2  
    13   10   11 1  
    14   12   13 1  
    15   13   14 1  
    16   14   15 1  
    17   15   16 1  
    18   16   17 1  
    19   16   18 1  
    20   16   19 1  
    21   19   20 ar 
    22   19   21 ar 
    23   19   22 ar 
    24    2   23 1  
    25    7   24 1  
    26    9   25 1  
    27    9   26 1  
    28   12   27 1  
    29   12   28 1  
    30   13   29 1  
    31   13   30 1  
    32   14   31 1  
    33   14   32 1  
    34   15   33 1  
    35   15   34 1  
@<TRIPOS>SUBSTRUCTURE
     1 HA1         1

