### 
### Created by X-TOOL on Fri Sep 26 17:34:57 2014
### 

@<TRIPOS>MOLECULE
4f5y_ligand
   68    74     1     0     0
SMALL
GAST_HUCK


@<TRIPOS>ATOM
      1 P1         20.1830   20.0320   21.1420 P.3       1 C2E         0.2557
      2 O2P        20.2840   19.4130   19.7030 O.co2     1 C2E        -0.6177
      3 O1P        21.3250   19.4100   21.9800 O.co2     1 C2E        -0.6177
      4 O5'        20.4060   21.5870   21.0390 O.3       1 C2E        -0.2514
      5 C5'        20.5490   22.2860   22.2590 C.3       1 C2E         0.1128
      6 C4'        20.3920   23.7920   22.0050 C.3       1 C2E         0.1242
      7 O4'        21.6050   24.2980   21.4630 O.3       1 C2E        -0.3359
      8 C3'        19.3170   24.2520   21.0480 C.3       1 C2E         0.1540
      9 O3'        18.0990   24.3930   21.7120 O.3       1 C2E        -0.2453
     10 C2'        19.8460   25.5400   20.5960 C.3       1 C2E         0.1440
     11 O2'        19.6720   26.5330   21.5580 O.3       1 C2E        -0.3832
     12 C1'        21.3170   25.2410   20.4370 C.3       1 C2E         0.1996
     13 N9         21.6050   24.8230   19.0840 N.pl3     1 C2E        -0.2101
     14 C8         21.5310   23.5570   18.5500 C.2       1 C2E         0.0957
     15 N7         21.8790   23.5760   17.2250 N.2       1 C2E        -0.3235
     16 C5         22.1960   24.9180   16.8820 C.2       1 C2E         0.0926
     17 C6         22.6320   25.6180   15.7040 C.2       1 C2E         0.2135
     18 O6         22.8260   24.9490   14.5190 O.2       1 C2E        -0.4091
     19 N1         22.8650   27.0160   15.7370 N.am      1 C2E        -0.1839
     20 C2         22.6790   27.7370   16.9340 C.2       1 C2E         0.2340
     21 N2         22.9280   29.1620   16.9660 N.pl3     1 C2E        -0.2807
     22 N3         22.2620   27.0850   18.0720 N.2       1 C2E        -0.2765
     23 C4         22.0140   25.7030   18.0920 C.2       1 C2E         0.1159
     24 P11        16.7080   24.0190   21.0660 P.3       1 C2E         0.2557
     25 O21        15.5990   24.6210   21.9350 O.co2     1 C2E        -0.6177
     26 O11        16.6210   24.5590   19.6160 O.co2     1 C2E        -0.6177
     27 O5A        16.5660   22.4350   21.0540 O.3       1 C2E        -0.2514
     28 C5A        16.3500   21.7180   22.2730 C.3       1 C2E         0.1128
     29 C4A        16.4500   20.2290   21.9590 C.3       1 C2E         0.1242
     30 O4A        15.3440   19.7830   21.2540 O.3       1 C2E        -0.3359
     31 C3A        17.6210   19.9100   21.1090 C.3       1 C2E         0.1540
     32 O3A        18.7660   19.7520   21.8130 O.3       1 C2E        -0.2453
     33 C2A        17.1650   18.5930   20.5420 C.3       1 C2E         0.1440
     34 O2A        17.4230   17.4990   21.3810 O.3       1 C2E        -0.3832
     35 C1A        15.7210   18.8040   20.3260 C.3       1 C2E         0.1996
     36 N91        15.5670   19.2820   18.9900 N.pl3     1 C2E        -0.2101
     37 C81        15.6910   20.5520   18.5480 C.2       1 C2E         0.0957
     38 N71        15.5040   20.6160   17.1850 N.2       1 C2E        -0.3235
     39 C51        15.2560   19.3190   16.7540 C.2       1 C2E         0.0926
     40 C61        14.9710   18.6710   15.4700 C.2       1 C2E         0.2135
     41 O61        14.9220   19.4820   14.3090 O.2       1 C2E        -0.4091
     42 N11        14.7600   17.3060   15.4280 N.am      1 C2E        -0.1839
     43 C21        14.8160   16.5060   16.6470 C.2       1 C2E         0.2340
     44 N21        14.5960   15.0790   16.6340 N.pl3     1 C2E        -0.2807
     45 N31        15.0770   17.1000   17.8530 N.2       1 C2E        -0.2765
     46 C41        15.2990   18.4740   17.9230 C.2       1 C2E         0.1159
     47 H1         21.5449   22.0870   22.6815 H         1 C2E         0.0647
     48 H2         19.7766   21.9507   22.9668 H         1 C2E         0.0647
     49 H3         20.1967   24.2632   22.9796 H         1 C2E         0.0655
     50 H4         19.1989   23.5527   20.2071 H         1 C2E         0.0712
     51 H5         19.3866   25.8523   19.6466 H         1 C2E         0.0681
     52 H6         18.7455   26.6365   21.7407 H         1 C2E         0.2102
     53 H7         21.9018   26.1526   20.6290 H         1 C2E         0.0998
     54 H8         21.2373   22.6657   19.1026 H         1 C2E         0.1179
     55 H9         23.1620   27.4918   14.9091 H         1 C2E         0.2515
     56 H10        22.7922   29.6890   17.8405 H         1 C2E         0.1897
     57 H11        23.2411   29.6494   16.1143 H         1 C2E         0.1897
     58 H12        15.3518   21.9504   22.6725 H         1 C2E         0.0647
     59 H13        17.1150   21.9971   23.0124 H         1 C2E         0.0647
     60 H14        16.5275   19.6805   22.9093 H         1 C2E         0.0655
     61 H15        17.7729   20.6689   20.3273 H         1 C2E         0.0712
     62 H16        17.6667   18.4088   19.5806 H         1 C2E         0.0681
     63 H17        18.3581   17.4330   21.5349 H         1 C2E         0.2102
     64 H18        15.1463   17.8781   20.4756 H         1 C2E         0.0998
     65 H19        15.9093   21.4093   19.1831 H         1 C2E         0.1179
     66 H20        14.5669   16.8618   14.5531 H         1 C2E         0.2515
     67 H21        14.6425   14.5427   17.5122 H         1 C2E         0.1897
     68 H22        14.3926   14.5973   15.7466 H         1 C2E         0.1897
@<TRIPOS>BOND
     1    1    2 ar 
     2    1    3 ar 
     3    1    4 1  
     4    1   32 1  
     5    4    5 1  
     6    5    6 1  
     7    6    7 1  
     8    6    8 1  
     9    7   12 1  
    10    8    9 1  
    11    8   10 1  
    12    9   24 1  
    13   10   11 1  
    14   10   12 1  
    15   12   13 1  
    16   13   14 1  
    17   13   23 1  
    18   14   15 2  
    19   15   16 1  
    20   16   17 1  
    21   16   23 2  
    22   17   18 2  
    23   17   19 am 
    24   19   20 am 
    25   20   21 1  
    26   20   22 2  
    27   22   23 1  
    28   24   25 ar 
    29   24   26 ar 
    30   24   27 1  
    31   27   28 1  
    32   28   29 1  
    33   29   30 1  
    34   29   31 1  
    35   30   35 1  
    36   31   32 1  
    37   31   33 1  
    38   33   34 1  
    39   33   35 1  
    40   35   36 1  
    41   36   37 1  
    42   36   46 1  
    43   37   38 2  
    44   38   39 1  
    45   39   40 1  
    46   39   46 2  
    47   40   41 2  
    48   40   42 am 
    49   42   43 am 
    50   43   44 1  
    51   43   45 2  
    52   45   46 1  
    53    5   47 1  
    54    5   48 1  
    55    6   49 1  
    56    8   50 1  
    57   10   51 1  
    58   11   52 1  
    59   12   53 1  
    60   14   54 1  
    61   19   55 1  
    62   21   56 1  
    63   21   57 1  
    64   28   58 1  
    65   28   59 1  
    66   29   60 1  
    67   31   61 1  
    68   33   62 1  
    69   34   63 1  
    70   35   64 1  
    71   37   65 1  
    72   42   66 1  
    73   44   67 1  
    74   44   68 1  
@<TRIPOS>SUBSTRUCTURE
     1 C2E         1

