### 
### Created by X-TOOL on Fri Sep 26 17:35:01 2014
### 

@<TRIPOS>MOLECULE
3zi0_ligand
   48    50     1     0     0
SMALL
GAST_HUCK


@<TRIPOS>ATOM
      1 C1         39.2970   21.9940   23.7130 C.2       1 FM8         0.2254
      2 N1         39.9430   21.5760   24.8150 N.am      1 FM8        -0.1507
      3 O1         38.0950   21.7940   23.5360 O.2       1 FM8        -0.3886
      4 CL1        45.8090   24.4220   24.3370 Cl        1 FM8        -0.0718
      5 C2         41.3770   21.8070   25.0930 C.3       1 FM8         0.0656
      6 N2         40.7400   25.1810   24.8160 N.pl3     1 FM8        -0.1656
      7 O2         39.2020   20.9370   25.7630 O.3       1 FM8        -0.2695
      8 CL2        45.9070   24.3710   21.1930 Cl        1 FM8        -0.0764
      9 C3         42.1650   20.5140   25.4150 C.3       1 FM8        -0.0021
     10 N3         41.8860   25.5970   24.6300 N.2       1 FM8        -0.1880
     11 C4         42.9440   20.0230   24.1780 C.3       1 FM8         0.0661
     12 N4         41.6890   25.1010   26.7190 N.2       1 FM8        -0.2869
     13 C6         43.7270   21.1380   23.4560 C.ar      1 FM8        -0.0229
     14 C7         44.3620   22.1640   24.1550 C.ar      1 FM8        -0.0443
     15 C8         45.0300   23.1590   23.4530 C.ar      1 FM8         0.0478
     16 C9         45.0710   23.1310   22.0580 C.ar      1 FM8         0.0469
     17 C10        44.4420   22.1060   21.3510 C.ar      1 FM8        -0.0541
     18 C11        43.7670   21.1150   22.0640 C.ar      1 FM8        -0.0580
     19 C12        40.0830   22.7420   22.6150 C.ar      1 FM8         0.0559
     20 C13        40.2430   24.1380   22.6520 C.ar      1 FM8         0.0100
     21 C14        40.9500   24.7620   21.6170 C.ar      1 FM8        -0.0516
     22 C15        41.4790   24.0250   20.5530 C.ar      1 FM8        -0.0642
     23 C16        41.2980   22.6510   20.5170 C.ar      1 FM8        -0.0631
     24 C17        40.5980   22.0110   21.5420 C.ar      1 FM8        -0.0485
     25 C18        39.7150   25.0540   23.7650 C.3       1 FM8         0.1129
     26 C19        42.5290   25.5690   25.7970 C.2       1 FM8         0.0620
     27 C20        40.5420   24.8570   26.0910 C.2       1 FM8         0.1301
     28 PA1        44.0080   18.5480   24.5010 P.3       1 FM8         0.0732
     29 OP1        43.7730   17.9210   25.9560 O.co2     1 FM8        -0.5605
     30 OP2        43.2510   17.5390   23.5040 O.co2     1 FM8        -0.5605
     31 OP3        45.4380   18.6500   24.1070 O.co2     1 FM8        -0.5605
     32 H1         41.4587   22.4868   25.9539 H         1 FM8         0.0552
     33 H2         41.8305   22.2788   24.2089 H         1 FM8         0.0552
     34 H3         38.3055   20.8541   25.4599 H         1 FM8         0.2493
     35 H4         41.4595   19.7312   25.7306 H         1 FM8         0.0324
     36 H5         42.8748   20.7182   26.2301 H         1 FM8         0.0324
     37 H6         42.1763   19.6869   23.4655 H         1 FM8         0.0651
     38 H7         44.3345   22.1849   25.2385 H         1 FM8         0.0563
     39 H8         44.4771   22.0801   20.2679 H         1 FM8         0.0606
     40 H9         43.2671   20.3166   21.5276 H         1 FM8         0.0559
     41 H10        41.0899   25.8367   21.6410 H         1 FM8         0.0569
     42 H11        42.0267   24.5244   19.7620 H         1 FM8         0.0634
     43 H12        41.7001   22.0731   19.6927 H         1 FM8         0.0571
     44 H13        40.4530   20.9374   21.5046 H         1 FM8         0.0650
     45 H14        39.4904   26.0470   23.3484 H         1 FM8         0.0822
     46 H15        38.7996   24.6208   24.1944 H         1 FM8         0.0822
     47 H16        43.5602   25.8750   25.9671 H         1 FM8         0.0864
     48 H17        39.6248   24.4697   26.5322 H         1 FM8         0.1363
@<TRIPOS>BOND
     1    1    2 am 
     2    1    3 2  
     3   19    1 1  
     4    2    5 1  
     5    2    7 1  
     6   15    4 1  
     7    5    9 1  
     8    6   10 1  
     9   25    6 1  
    10    6   27 1  
    11   16    8 1  
    12    9   11 1  
    13   10   26 2  
    14   11   13 1  
    15   11   28 1  
    16   12   26 1  
    17   27   12 2  
    18   13   14 ar 
    19   13   18 ar 
    20   14   15 ar 
    21   15   16 ar 
    22   17   16 ar 
    23   18   17 ar 
    24   20   19 ar 
    25   19   24 ar 
    26   20   21 ar 
    27   20   25 1  
    28   21   22 ar 
    29   22   23 ar 
    30   23   24 ar 
    31   28   29 ar 
    32   28   30 ar 
    33   28   31 ar 
    34    5   32 1  
    35    5   33 1  
    36    7   34 1  
    37    9   35 1  
    38    9   36 1  
    39   11   37 1  
    40   14   38 1  
    41   17   39 1  
    42   18   40 1  
    43   21   41 1  
    44   22   42 1  
    45   23   43 1  
    46   24   44 1  
    47   25   45 1  
    48   25   46 1  
    49   26   47 1  
    50   27   48 1  
@<TRIPOS>SUBSTRUCTURE
     1 FM8         1

