### 
### Created by X-TOOL on Fri Sep 26 17:34:34 2014
### 

@<TRIPOS>MOLECULE
2fzk_ligand
   34    34     1     0     0
SMALL
GAST_HUCK


@<TRIPOS>ATOM
      1 OAD        37.0020   26.3050   20.5930 O.co2     1 EOZ        -0.5606
      2 PAX        38.2680   27.0160   21.2910 P.3       1 EOZ         0.0781
      3 OAH        39.5190   26.6380   20.3470 O.co2     1 EOZ        -0.5606
      4 OAG        38.4320   26.5620   22.6910 O.co2     1 EOZ        -0.5606
      5 CAN        38.0400   28.8080   21.1310 C.3       1 EOZ         0.1142
      6 CAS        37.6120   29.0480   19.6920 C.2       1 EOZ         0.2198
      7 OAB        36.4160   28.8910   19.3890 O.2       1 EOZ        -0.3834
      8 NAP        38.5210   29.4460   18.8040 N.am      1 EOZ        -0.2357
      9 CAU        39.8020   29.7760   18.9440 C.ar      1 EOZ         0.0556
     10 CAK        40.5450   29.8130   17.7720 C.ar      1 EOZ        -0.0201
     11 CAL        40.4700   29.8990   20.1670 C.ar      1 EOZ        -0.0423
     12 CAW        41.8500   30.0980   20.1920 C.ar      1 EOZ        -0.0159
     13 CAR        42.5870   30.4070   21.4990 C.2       1 EOZ         0.0562
     14 OAA        43.8350   30.3480   21.4850 O.co2     1 EOZ        -0.5609
     15 OAF        41.9070   30.7180   22.5050 O.co2     1 EOZ        -0.5609
     16 CAM        42.5840   30.1070   19.0110 C.ar      1 EOZ        -0.0423
     17 CAV        41.9340   29.9490   17.7900 C.ar      1 EOZ         0.0556
     18 NAQ        42.6740   29.6940   16.7170 N.am      1 EOZ        -0.2357
     19 CAT        42.1440   29.2480   15.5770 C.2       1 EOZ         0.2198
     20 OAC        40.9470   28.9990   15.4290 O.2       1 EOZ        -0.3834
     21 CAO        43.1510   29.0040   14.4490 C.3       1 EOZ         0.1142
     22 PAY        42.3240   28.7270   12.8580 P.3       1 EOZ         0.0781
     23 OAI        41.3230   27.4810   13.0950 O.co2     1 EOZ        -0.5606
     24 OAE        43.4530   28.2010   11.8310 O.co2     1 EOZ        -0.5606
     25 OAJ        41.6370   29.9430   12.3570 O.co2     1 EOZ        -0.5606
     26 H1         38.9828   29.3338   21.3423 H         1 EOZ         0.0698
     27 H2         37.2615   29.1579   21.8249 H         1 EOZ         0.0698
     28 H3         38.1803   29.5077   17.8658 H         1 EOZ         0.2253
     29 H4         40.0338   29.7343   16.8193 H         1 EOZ         0.0396
     30 H5         39.9145   29.8396   21.0959 H         1 EOZ         0.0414
     31 H6         43.6598   30.2367   19.0410 H         1 EOZ         0.0414
     32 H7         43.6619   29.8413   16.7653 H         1 EOZ         0.2253
     33 H8         43.7547   28.1182   14.6957 H         1 EOZ         0.0698
     34 H9         43.8074   29.8823   14.3612 H         1 EOZ         0.0698
@<TRIPOS>BOND
     1    1    2 ar 
     2    2    3 ar 
     3    2    4 ar 
     4    2    5 1  
     5    5    6 1  
     6    6    7 2  
     7    6    8 am 
     8    8    9 1  
     9    9   10 ar 
    10    9   11 ar 
    11   10   17 ar 
    12   11   12 ar 
    13   12   13 1  
    14   12   16 ar 
    15   13   14 ar 
    16   13   15 ar 
    17   16   17 ar 
    18   17   18 1  
    19   18   19 am 
    20   19   20 2  
    21   19   21 1  
    22   21   22 1  
    23   22   23 ar 
    24   22   24 ar 
    25   22   25 ar 
    26    5   26 1  
    27    5   27 1  
    28    8   28 1  
    29   10   29 1  
    30   11   30 1  
    31   16   31 1  
    32   18   32 1  
    33   21   33 1  
    34   21   34 1  
@<TRIPOS>SUBSTRUCTURE
     1 EOZ         1

