### 
### Created by X-TOOL on Fri Sep 26 17:34:41 2014
### 

@<TRIPOS>MOLECULE
3b5j_ligand
   55    59     1     0     0
SMALL
GAST_HUCK


@<TRIPOS>ATOM
      1 P1         23.5610    1.0270   29.1430 P.3       1 MOL         0.2069
      2 O1         23.4280    1.3440   27.6720 O.co2     1 MOL        -0.5891
      3 O2         24.0180   -0.3830   29.4250 O.co2     1 MOL        -0.5891
      4 O3         22.3400    1.3870   29.9520 O.co2     1 MOL        -0.5891
      5 P2         25.4100    3.2500   29.0560 P.3       1 MOL         0.3276
      6 O4         26.4710    2.8850   28.0370 O.co2     1 MOL        -0.5556
      7 O5         24.3280    4.2100   28.6580 O.co2     1 MOL        -0.5556
      8 O6         24.7710    1.9180   29.7050 O.3       1 MOL        -0.1548
      9 O7         26.1500    3.8940   30.3310 O.3       1 MOL        -0.2436
     10 C1         27.3760    3.3770   30.8510 C.3       1 MOL         0.1131
     11 C2         27.9060    4.3310   31.9140 C.3       1 MOL         0.1175
     12 O8         28.4360    5.5140   31.3010 O.3       1 MOL        -0.3365
     13 C3         26.7360    4.7620   32.7780 C.3       1 MOL         0.1010
     14 O9         27.0490    4.7550   34.1670 O.3       1 MOL        -0.4077
     15 C4         26.4470    6.2010   32.4130 C.3       1 MOL         0.1251
     16 O10        26.2550    6.8720   33.6470 O.3       1 MOL        -0.4054
     17 C5         27.7140    6.6850   31.7250 C.3       1 MOL         0.1996
     18 N1         27.4740    7.6530   30.6190 N.pl3     1 MOL        -0.1920
     19 C6         26.6700    7.5020   29.5520 C.2       1 MOL         0.1123
     20 N2         26.7400    8.6140   28.7870 N.2       1 MOL        -0.2958
     21 C7         27.5890    9.4670   29.3850 C.ar      1 MOL         0.1045
     22 C8         28.0440   10.7400   29.0670 C.ar      1 MOL         0.1298
     23 N3         27.6090   11.3610   27.9390 N.pl3     1 MOL        -0.3152
     24 N4         28.9260   11.3410   29.9010 N.ar      1 MOL        -0.2698
     25 C9         29.3600   10.7450   31.0250 C.ar      1 MOL         0.0533
     26 N5         28.9390    9.5080   31.3420 N.ar      1 MOL        -0.2714
     27 C10        28.0540    8.8560   30.5400 C.ar      1 MOL         0.1613
     28 C11        26.5540    5.9780   34.7330 C.3       1 MOL         0.2110
     29 C12        27.6390    6.6160   35.5940 C.2       1 MOL         0.2069
     30 C13        27.3900    7.0060   36.9040 C.2       1 MOL         0.0587
     31 C14        26.1560    6.8150   37.5060 C.2       1 MOL         0.2783
     32 C15        25.1200    6.2260   36.8040 C.2       1 MOL         0.0740
     33 C16        25.2470    5.7870   35.4920 C.3       1 MOL         0.2630
     34 N6         28.8980    6.8630   35.1330 N.2       1 MOL         0.3015
     35 N7         25.9670    7.2180   38.7870 N.2       1 MOL         0.3272
     36 N8         24.1150    5.2340   34.9570 N.2       1 MOL         0.3140
     37 O11        29.2960    6.5290   33.8500 O.2       1 MOL         0.1726
     38 O12        29.8480    7.4720   35.9460 O.2       1 MOL         0.1726
     39 O13        24.7380    7.0380   39.4180 O.2       1 MOL         0.1744
     40 O14        27.0140    7.8170   39.4800 O.2       1 MOL         0.1744
     41 O15        24.0310    4.7370   33.6580 O.2       1 MOL         0.1908
     42 O16        22.9710    5.1400   35.7500 O.2       1 MOL         0.1908
     43 H1         28.1116    3.2852   30.0383 H         1 MOL         0.0648
     44 H2         27.1987    2.3880   31.2987 H         1 MOL         0.0648
     45 H3         28.6784    3.8344   32.5196 H         1 MOL         0.0650
     46 H4         25.8660    4.1173   32.5843 H         1 MOL         0.0633
     47 H5         25.5682    6.3042   31.7595 H         1 MOL         0.0661
     48 H6         28.3249    7.2088   32.4749 H         1 MOL         0.0995
     49 H7         26.0606    6.6251   29.3386 H         1 MOL         0.1349
     50 H8         27.9491   12.3052   27.7071 H         1 MOL         0.1820
     51 H9         26.9392   10.8875   27.3161 H         1 MOL         0.1820
     52 H10        30.0521   11.2637   31.6784 H         1 MOL         0.0996
     53 H11        28.1889    7.4762   37.4755 H         1 MOL         0.1304
     54 H12        24.1601    6.1005   37.3029 H         1 MOL         0.1572
     55 H13        25.5921    4.7968   35.8244 H         1 MOL         0.0988
@<TRIPOS>BOND
     1    1    2 ar 
     2    1    3 ar 
     3    1    4 ar 
     4    8    1 1  
     5    5    6 ar 
     6    5    7 ar 
     7    5    8 1  
     8    5    9 1  
     9    9   10 1  
    10   10   11 1  
    11   11   12 1  
    12   11   13 1  
    13   12   17 1  
    14   13   14 1  
    15   13   15 1  
    16   14   28 1  
    17   15   16 1  
    18   15   17 1  
    19   16   28 1  
    20   17   18 1  
    21   18   19 1  
    22   18   27 1  
    23   19   20 2  
    24   20   21 1  
    25   21   22 ar 
    26   21   27 ar 
    27   22   23 1  
    28   22   24 ar 
    29   24   25 ar 
    30   25   26 ar 
    31   26   27 ar 
    32   28   29 1  
    33   28   33 1  
    34   29   30 2  
    35   29   34 1  
    36   30   31 1  
    37   31   32 2  
    38   31   35 1  
    39   32   33 1  
    40   33   36 1  
    41   34   37 2  
    42   34   38 2  
    43   35   39 2  
    44   35   40 2  
    45   36   41 2  
    46   36   42 2  
    47   10   43 1  
    48   10   44 1  
    49   11   45 1  
    50   13   46 1  
    51   15   47 1  
    52   17   48 1  
    53   19   49 1  
    54   23   50 1  
    55   23   51 1  
    56   25   52 1  
    57   30   53 1  
    58   32   54 1  
    59   33   55 1  
@<TRIPOS>SUBSTRUCTURE
     1 MOL         1

