### 
### Created by X-TOOL on Fri Sep 26 17:34:38 2014
### 

@<TRIPOS>MOLECULE
2v2q_ligand
   52    55     1     0     0
SMALL
GAST_HUCK


@<TRIPOS>ATOM
      1 OAC        12.9440   -9.9710   14.9610 O.2       1 NVG        -0.3777
      2 CAV        13.0410   -9.0370   15.7620 C.2       1 NVG         0.3488
      3 NAO        12.3190   -7.9140   15.5500 N.am      1 NVG        -0.1924
      4 CAT        12.3730   -6.8650   16.3910 C.2       1 NVG         0.0853
      5 NAA        11.6480   -5.7770   16.1530 N.2       1 NVG        -0.4291
      6 CAF        13.1900   -6.8970   17.5220 C.2       1 NVG         0.0019
      7 CAG        13.9540   -8.0270   17.7840 C.2       1 NVG         0.0739
      8 NBD        13.8960   -9.1240   16.9000 N.am      1 NVG        -0.1467
      9 CBC        14.7180  -10.3600   17.1830 C.3       1 NVG         0.2108
     10 OAS        15.2460  -10.4160   18.5600 O.3       1 NVG        -0.3359
     11 CBA        15.9510  -10.4870   16.2580 C.3       1 NVG         0.1399
     12 OAE        15.9890  -11.8010   15.6740 O.3       1 NVG        -0.3835
     13 CAZ        17.1610  -10.2830   17.1680 C.3       1 NVG         0.1144
     14 OAD        17.8180  -11.5390   17.2980 O.3       1 NVG        -0.3864
     15 CBB        16.5610   -9.8010   18.5160 C.3       1 NVG         0.1107
     16 CAN        17.3020  -10.0920   19.8640 C.3       1 NVG         0.0597
     17 NAQ        18.2310  -11.2300   19.7370 N.am      1 NVG        -0.2842
     18 CAU        19.5410  -11.1410   19.9820 C.2       1 NVG         0.1789
     19 OAB        20.1120  -10.1100   20.3370 O.2       1 NVG        -0.3969
     20 CAL        20.3390  -12.4420   19.7890 C.3       1 NVG         0.0550
     21 CAM        19.5050  -13.7070   20.0450 C.3       1 NVG         0.0467
     22 CAW        19.1260  -13.8430   21.5220 C.2       1 NVG         0.1228
     23 NAR        18.2900  -13.0430   22.1840 N.2       1 NVG        -0.3180
     24 CAY        18.2060  -13.4680   23.4380 C.ar      1 NVG         0.0207
     25 CAK        17.4910  -13.0090   24.5430 C.ar      1 NVG        -0.0656
     26 CAI        17.6050  -13.6780   25.7610 C.ar      1 NVG        -0.0786
     27 CAH        18.4300  -14.7990   25.8700 C.ar      1 NVG        -0.0766
     28 CAJ        19.1460  -15.2540   24.7630 C.ar      1 NVG        -0.0422
     29 CAX        19.0300  -14.5830   23.5470 C.ar      1 NVG         0.0783
     30 NAP        19.5760  -14.7840   22.3520 N.pl3     1 NVG        -0.2463
     31 H1         11.7279   -7.8613   14.7451 H         1 NVG         0.2412
     32 H2         11.6918   -4.9937   16.7860 H         1 NVG         0.0340
     33 H3         13.2283   -6.0415   18.1948 H         1 NVG         0.0330
     34 H4         14.5927   -8.0654   18.6652 H         1 NVG         0.1288
     35 H5         14.0640  -11.2297   17.0221 H         1 NVG         0.1013
     36 H6         15.9258   -9.7252   15.4649 H         1 NVG         0.0677
     37 H7         16.0451  -12.4515   16.3640 H         1 NVG         0.2101
     38 H8         17.8541   -9.5328   16.7595 H         1 NVG         0.0648
     39 H9         18.0947  -11.8406   16.4407 H         1 NVG         0.2100
     40 H10        16.4547   -8.7080   18.4519 H         1 NVG         0.0644
     41 H11        16.5563  -10.3245   20.6385 H         1 NVG         0.0546
     42 H12        17.8708   -9.1979   20.1592 H         1 NVG         0.0546
     43 H13        17.8610  -12.1144   19.4526 H         1 NVG         0.1852
     44 H14        21.1897  -12.4371   20.4863 H         1 NVG         0.0534
     45 H15        20.7126  -12.4729   18.7549 H         1 NVG         0.0534
     46 H16        20.0912  -14.5879   19.7444 H         1 NVG         0.0558
     47 H17        18.5853  -13.6559   19.4438 H         1 NVG         0.0558
     48 H18        16.8511  -12.1384   24.4560 H         1 NVG         0.0535
     49 H19        17.0521  -13.3271   26.6248 H         1 NVG         0.0516
     50 H20        18.5143  -15.3175   26.8182 H         1 NVG         0.0528
     51 H21        19.7881  -16.1233   24.8478 H         1 NVG         0.0541
     52 H22        20.2343  -15.5380   22.1088 H         1 NVG         0.2322
@<TRIPOS>BOND
     1    1    2 2  
     2    2    3 am 
     3    2    8 am 
     4    3    4 1  
     5    4    5 2  
     6    4    6 1  
     7    6    7 2  
     8    7    8 1  
     9    8    9 1  
    10    9   10 1  
    11    9   11 1  
    12   10   15 1  
    13   11   12 1  
    14   11   13 1  
    15   13   14 1  
    16   13   15 1  
    17   15   16 1  
    18   16   17 1  
    19   17   18 am 
    20   18   19 2  
    21   18   20 1  
    22   20   21 1  
    23   21   22 1  
    24   22   23 2  
    25   22   30 1  
    26   23   24 1  
    27   24   25 ar 
    28   24   29 ar 
    29   25   26 ar 
    30   26   27 ar 
    31   27   28 ar 
    32   28   29 ar 
    33   29   30 1  
    34    3   31 1  
    35    5   32 1  
    36    6   33 1  
    37    7   34 1  
    38    9   35 1  
    39   11   36 1  
    40   12   37 1  
    41   13   38 1  
    42   14   39 1  
    43   15   40 1  
    44   16   41 1  
    45   16   42 1  
    46   17   43 1  
    47   20   44 1  
    48   20   45 1  
    49   21   46 1  
    50   21   47 1  
    51   25   48 1  
    52   26   49 1  
    53   27   50 1  
    54   28   51 1  
    55   30   52 1  
@<TRIPOS>SUBSTRUCTURE
     1 NVG         1

