### 
### Created by X-TOOL on Sun Nov 13 14:29:06 2016
### 

@<TRIPOS>MOLECULE
4p6c_ligand
   22    21     1     0     0
SMALL
GAST_HUCK


@<TRIPOS>ATOM
      1 O7         -8.2640    4.1710  -34.7270 O.co2     1 RES        -0.5537
      2 P          -8.3260    3.1180  -33.6430 P.3       1 RES         0.2008
      3 O5         -6.9790    2.6290  -33.1720 O.co2     1 RES        -0.5537
      4 O6         -9.2970    2.0080  -33.9850 O.co2     1 RES        -0.5537
      5 O4         -8.9800    3.8210  -32.3530 O.3       1 RES        -0.2733
      6 C4         -9.1490    5.2280  -32.2390 C.3       1 RES         0.1089
      7 C3         -9.9540    5.5050  -30.9780 C.3       1 RES         0.1256
      8 O3        -11.2340    6.0330  -31.3210 O.3       1 RES        -0.3842
      9 C2        -10.1650    4.2030  -30.2320 C.3       1 RES         0.1733
     10 O2         -9.0230    3.9640  -29.4230 O.3       1 RES        -0.3687
     11 C1        -11.3570    4.3090  -29.3390 C.2       1 RES         0.2304
     12 O1        -12.4630    4.0870  -29.7900 O.2       1 RES        -0.3940
     13 N         -11.1190    4.6390  -28.0730 N.am      1 RES        -0.1620
     14 ON        -12.1620    4.7310  -27.1540 O.3       1 RES        -0.2717
     15 H1         -9.6883    5.6115  -33.1177 H         1 RES         0.0641
     16 H2         -8.1664    5.7175  -32.1694 H         1 RES         0.0641
     17 H3         -9.4125    6.2210  -30.3423 H         1 RES         0.0672
     18 H4        -11.7011    5.4040  -31.8583 H         1 RES         0.2102
     19 H5        -10.3050    3.3794  -30.9476 H         1 RES         0.0864
     20 H6         -8.2524    3.9030  -29.9751 H         1 RES         0.2134
     21 H7        -10.1815    4.8231  -27.7775 H         1 RES         0.2217
     22 H8        -12.7816    5.3899  -27.4448 H         1 RES         0.2490
@<TRIPOS>BOND
     1    1    2 ar 
     2    2    3 ar 
     3    2    4 ar 
     4    2    5 1  
     5    5    6 1  
     6    6    7 1  
     7    7    8 1  
     8    7    9 1  
     9    9   10 1  
    10    9   11 1  
    11   11   12 2  
    12   11   13 am 
    13   13   14 1  
    14    6   15 1  
    15    6   16 1  
    16    7   17 1  
    17    8   18 1  
    18    9   19 1  
    19   10   20 1  
    20   13   21 1  
    21   14   22 1  
@<TRIPOS>SUBSTRUCTURE
     1 RES         1

