### 
### Created by X-TOOL on Fri Sep 26 17:34:10 2014
### 

@<TRIPOS>MOLECULE
1ppl_ligand
   91    91     1     0     0
SMALL
GAST_HUCK


@<TRIPOS>ATOM
      1 CA         15.9420    4.1260   17.4870 C.3       1 MOL         0.0397
      2 CB         14.6430    3.6540   18.1870 C.3       1 MOL        -0.0298
      3 CG1        14.3150    4.8410   19.0870 C.3       1 MOL        -0.0606
      4 CG2        13.4600    3.5320   17.2680 C.3       1 MOL        -0.0606
      5 C          17.0680    4.4480   18.4850 C.2       1 MOL         0.1785
      6 O          17.1950    3.6450   19.4790 O.2       1 MOL        -0.3969
      7 N          17.8820    5.4490   18.3940 N.am      1 MOL        -0.2654
      8 CA         19.0160    5.6420   19.2870 C.3       1 MOL         0.1332
      9 C          18.9210    6.9900   19.9870 C.2       1 MOL         0.2042
     10 O          18.1180    7.8830   19.5600 O.2       1 MOL        -0.3944
     11 CB         20.2910    5.6330   18.3540 C.3       1 MOL        -0.0063
     12 CG1        20.4610    4.2100   17.8010 C.3       1 MOL        -0.0584
     13 CG2        20.2290    6.5910   17.1820 C.3       1 MOL        -0.0584
     14 N          19.6870    7.0590   21.0610 N.am      1 MOL        -0.2635
     15 CA         19.6540    8.3980   21.7970 C.3       1 MOL         0.1332
     16 C          21.1900    8.6890   21.9870 C.2       1 MOL         0.2034
     17 O          21.7700    8.0720   22.8770 O.2       1 MOL        -0.3945
     18 CB         18.9620    8.2550   23.1180 C.3       1 MOL        -0.0063
     19 CG1        18.8480    9.6640   23.8070 C.3       1 MOL        -0.0584
     20 CG2        17.5350    7.7840   22.8850 C.3       1 MOL        -0.0584
     21 CA         23.1040    9.9030   21.1450 C.3       1 MOL         0.1313
     22 CB         23.8890    9.3340   19.9240 C.3       1 MOL        -0.0089
     23 CG         23.7360    7.8390   19.5170 C.3       1 MOL        -0.0431
     24 CD1        24.1350    7.6160   18.0600 C.3       1 MOL        -0.0625
     25 CD2        24.1760    6.8870   20.5840 C.3       1 MOL        -0.0625
     26 N          21.7090    9.5240   21.1100 N.am      1 MOL        -0.2641
     27 P          23.3210   11.6840   21.2810 P.3       1 MOL         0.1500
     28 O          22.4510   12.2770   20.2720 O.co2     1 MOL        -0.6187
     29 OH         24.7520   12.0150   21.1000 O.co2     1 MOL        -0.6187
     30 CA         23.5860   13.0410   23.4660 C.3       1 MOL         0.2011
     31 CB         22.5800   14.0210   24.1290 C.3       1 MOL         0.0314
     32 CG         21.6400   13.4480   25.1720 C.ar      1 MOL        -0.0378
     33 CD1        21.9520   13.5400   26.5200 C.ar      1 MOL        -0.0601
     34 CD2        20.4620   12.7950   24.7960 C.ar      1 MOL        -0.0601
     35 CE1        21.0920   12.9630   27.4590 C.ar      1 MOL        -0.0686
     36 CE2        19.6880   12.1630   25.7410 C.ar      1 MOL        -0.0686
     37 CZ         19.9430   12.2840   27.0690 C.ar      1 MOL        -0.0687
     38 C          24.3990   12.3760   24.6000 C.2       1 MOL         0.2708
     39 CS         25.9890   12.6670   26.3900 C.3       1 MOL         0.0659
     40 OP         22.9280   11.9630   22.7000 O.3       1 MOL        -0.2509
     41 OS         25.1990   13.2320   25.3720 O.3       1 MOL        -0.2778
     42 O          24.3280   11.1650   24.8400 O.2       1 MOL        -0.3668
     43 H1         15.7189    5.0313   16.9034 H         1 MOL         0.0505
     44 H2         16.2873    3.3299   16.8111 H         1 MOL         0.0505
     45 H3         14.8049    2.7183   18.7422 H         1 MOL         0.0320
     46 H4         13.3946    4.6300   19.6513 H         1 MOL         0.0234
     47 H5         14.1687    5.7397   18.4698 H         1 MOL         0.0234
     48 H6         15.1450    5.0093   19.7890 H         1 MOL         0.0234
     49 H7         13.6170    2.6898   16.5780 H         1 MOL         0.0234
     50 H8         13.3460    4.4619   16.6915 H         1 MOL         0.0234
     51 H9         12.5511    3.3549   17.8618 H         1 MOL         0.0234
     52 H10        17.7246    6.1247   17.6738 H         1 MOL         0.1883
     53 H11        19.0666    4.8343   20.0320 H         1 MOL         0.0802
     54 H12        21.1662    5.8968   18.9659 H         1 MOL         0.0343
     55 H13        21.3440    4.1743   17.1460 H         1 MOL         0.0234
     56 H14        19.5661    3.9309   17.2255 H         1 MOL         0.0234
     57 H15        20.5948    3.5059   18.6354 H         1 MOL         0.0234
     58 H16        20.1071    7.6188   17.5546 H         1 MOL         0.0234
     59 H17        19.3748    6.3301   16.5399 H         1 MOL         0.0234
     60 H18        21.1600    6.5198   16.6006 H         1 MOL         0.0234
     61 H19        20.2478    6.2908   21.3700 H         1 MOL         0.1883
     62 H20        19.1630    9.1807   21.2001 H         1 MOL         0.0802
     63 H21        19.5091    7.5486   23.7596 H         1 MOL         0.0343
     64 H22        18.3398    9.5579   24.7768 H         1 MOL         0.0234
     65 H23        18.2694   10.3418   23.1621 H         1 MOL         0.0234
     66 H24        19.8550   10.0779   23.9641 H         1 MOL         0.0234
     67 H25        17.5493    6.7960   22.4017 H         1 MOL         0.0234
     68 H26        17.0132    8.5023   22.2355 H         1 MOL         0.0234
     69 H27        17.0102    7.7130   23.8491 H         1 MOL         0.0234
     70 H28        23.5376    9.4529   22.0502 H         1 MOL         0.0786
     71 H29        24.9569    9.4970   20.1314 H         1 MOL         0.0306
     72 H30        23.5898    9.9313   19.0501 H         1 MOL         0.0306
     73 H31        22.6481    7.6779   19.4952 H         1 MOL         0.0297
     74 H32        24.0155    6.5525   17.8058 H         1 MOL         0.0232
     75 H33        25.1851    7.9111   17.9181 H         1 MOL         0.0232
     76 H34        23.4918    8.2237   17.4065 H         1 MOL         0.0232
     77 H35        23.7875    7.2219   21.5571 H         1 MOL         0.0232
     78 H36        25.2750    6.8574   20.6186 H         1 MOL         0.0232
     79 H37        23.7890    5.8818   20.3609 H         1 MOL         0.0232
     80 H38        21.1202    9.9074   20.3984 H         1 MOL         0.1871
     81 H39        24.2528   13.6046   22.7969 H         1 MOL         0.0945
     82 H40        21.9620   14.4530   23.3281 H         1 MOL         0.0482
     83 H41        23.1640   14.8182   24.6121 H         1 MOL         0.0482
     84 H42        22.8513   14.0528   26.8415 H         1 MOL         0.0557
     85 H43        20.1577   12.7869   23.7556 H         1 MOL         0.0557
     86 H44        21.3260   13.0468   28.5141 H         1 MOL         0.0599
     87 H45        18.8528   11.5525   25.4172 H         1 MOL         0.0599
     88 H46        19.2687   11.8625   27.8057 H         1 MOL         0.0559
     89 H47        26.5533   13.4617   26.8999 H         1 MOL         0.0577
     90 H48        26.6910   11.9432   25.9503 H         1 MOL         0.0577
     91 H49        25.3404   12.1544   27.1157 H         1 MOL         0.0577
@<TRIPOS>BOND
     1    8    7 1  
     2    8   11 1  
     3    9    8 1  
     4    9   10 2  
     5   11   13 1  
     6   11   12 1  
     7   15   14 1  
     8   15   18 1  
     9   16   15 1  
    10   16   17 2  
    11   18   20 1  
    12   18   19 1  
    13   14    9 am 
    14    1    2 1  
    15    5    1 1  
    16    2    3 1  
    17    2    4 1  
    18    5    6 2  
    19    7    5 am 
    20   21   22 1  
    21   21   26 1  
    22   27   21 1  
    23   22   23 1  
    24   23   24 1  
    25   23   25 1  
    26   26   16 am 
    27   27   28 ar 
    28   27   29 ar 
    29   30   31 1  
    30   30   38 1  
    31   40   30 1  
    32   31   32 1  
    33   32   33 ar 
    34   32   34 ar 
    35   33   35 ar 
    36   34   36 ar 
    37   35   37 ar 
    38   36   37 ar 
    39   38   41 1  
    40   38   42 2  
    41   40   27 1  
    42   41   39 1  
    43    1   43 1  
    44    1   44 1  
    45    2   45 1  
    46    3   46 1  
    47    3   47 1  
    48    3   48 1  
    49    4   49 1  
    50    4   50 1  
    51    4   51 1  
    52    7   52 1  
    53    8   53 1  
    54   11   54 1  
    55   12   55 1  
    56   12   56 1  
    57   12   57 1  
    58   13   58 1  
    59   13   59 1  
    60   13   60 1  
    61   14   61 1  
    62   15   62 1  
    63   18   63 1  
    64   19   64 1  
    65   19   65 1  
    66   19   66 1  
    67   20   67 1  
    68   20   68 1  
    69   20   69 1  
    70   21   70 1  
    71   22   71 1  
    72   22   72 1  
    73   23   73 1  
    74   24   74 1  
    75   24   75 1  
    76   24   76 1  
    77   25   77 1  
    78   25   78 1  
    79   25   79 1  
    80   26   80 1  
    81   30   81 1  
    82   31   82 1  
    83   31   83 1  
    84   33   84 1  
    85   34   85 1  
    86   35   86 1  
    87   36   87 1  
    88   37   88 1  
    89   39   89 1  
    90   39   90 1  
    91   39   91 1  
@<TRIPOS>SUBSTRUCTURE
     1 MOL         1

