### 
### Created by X-TOOL on Fri Sep 26 17:34:47 2014
### 

@<TRIPOS>MOLECULE
2x96_ligand
   78    82     1     0     0
SMALL
GAST_HUCK


@<TRIPOS>ATOM
      1 OXT        33.1000    4.5660   25.4020 O.co2     1 RX3        -0.5665
      2 C24        31.8930    4.7100   25.1250 C.2       1 RX3         0.0613
      3 O6         31.0410    4.9460   26.0180 O.co2     1 RX3        -0.5665
      4 C23        31.4650    4.5930   23.6750 C.3       1 RX3         0.0985
      5 C25        31.9830    5.7620   22.8240 C.3       1 RX3        -0.0013
      6 C26        31.4150    7.1170   23.1830 C.2       1 RX3        -0.0424
      7 C28        30.4650    7.8450   22.4780 C.ar      1 RX3        -0.0214
      8 C30        29.7860    7.5530   21.2820 C.ar      1 RX3        -0.0747
      9 C32        28.8620    8.4810   20.7860 C.ar      1 RX3        -0.0792
     10 C33        28.6190    9.6810   21.4700 C.ar      1 RX3        -0.0768
     11 C31        29.2960    9.9670   22.6680 C.ar      1 RX3        -0.0443
     12 C29        30.2310    9.0380   23.1770 C.ar      1 RX3         0.0603
     13 N3         31.0240    9.0340   24.2800 N.pl3     1 RX3        -0.2891
     14 C27        31.7430    7.8820   24.2990 C.2       1 RX3         0.0166
     15 N2         30.0120    4.5700   23.5210 N.am      1 RX3        -0.2700
     16 C19        29.2330    3.5810   23.9640 C.2       1 RX3         0.1826
     17 O5         29.6300    2.5640   24.5470 O.2       1 RX3        -0.3966
     18 C18        27.7760    3.8220   23.6840 C.3       1 RX3         0.0674
     19 C20        27.2270    4.8920   24.6270 C.3       1 RX3        -0.0314
     20 C21        26.0070    4.3030   25.3310 C.3       1 RX3        -0.0488
     21 C22        26.0850    2.7860   25.1760 C.3       1 RX3        -0.0316
     22 C17        26.8720    2.6410   23.9110 C.3       1 RX3         0.0465
     23 P1         26.5990    1.4260   22.7290 P.3       1 RX3         0.0184
     24 O3         27.5900    1.6350   21.6000 O.co2     1 RX3        -0.6172
     25 O4         25.1950    1.7250   22.3080 O.co2     1 RX3        -0.6172
     26 C9         26.8470   -0.2640   23.0800 C.3       1 RX3         0.1179
     27 C10        27.7150   -0.8050   24.2080 C.3       1 RX3         0.0205
     28 C11        27.6380   -2.3260   24.3210 C.ar      1 RX3        -0.0393
     29 C13        26.9190   -2.9030   25.3790 C.ar      1 RX3        -0.0602
     30 C15        26.8170   -4.3000   25.4980 C.ar      1 RX3        -0.0686
     31 C16        27.4310   -5.1370   24.5500 C.ar      1 RX3        -0.0687
     32 C14        28.1430   -4.5740   23.4790 C.ar      1 RX3        -0.0686
     33 C12        28.2430   -3.1780   23.3700 C.ar      1 RX3        -0.0602
     34 N1         26.1920   -1.1710   22.3110 N.am      1 RX3        -0.2418
     35 C1         25.0930   -1.8240   21.9450 C.2       1 RX3         0.3232
     36 O2         24.0670   -1.8910   22.5870 O.2       1 RX3        -0.3774
     37 O1         25.1250   -2.5030   20.6670 O.3       1 RX3        -0.2506
     38 C2         23.9810   -2.6860   19.8400 C.3       1 RX3         0.1113
     39 C3         24.4070   -3.3810   18.5600 C.ar      1 RX3        -0.0130
     40 C4         25.2980   -2.7560   17.6750 C.ar      1 RX3        -0.0578
     41 C5         23.8970   -4.6560   18.2540 C.ar      1 RX3        -0.0578
     42 C7         24.2790   -5.3100   17.0720 C.ar      1 RX3        -0.0685
     43 C8         25.1680   -4.6860   16.1920 C.ar      1 RX3        -0.0687
     44 C6         25.6810   -3.4130   16.4980 C.ar      1 RX3        -0.0685
     45 H1         31.8780    3.6539   23.2782 H         1 RX3         0.0741
     46 H2         31.7333    5.5554   21.7728 H         1 RX3         0.0390
     47 H3         33.0760    5.8093   22.9388 H         1 RX3         0.0390
     48 H4         29.9745    6.6257   20.7531 H         1 RX3         0.0540
     49 H5         28.3300    8.2700   19.8654 H         1 RX3         0.0510
     50 H6         27.9045   10.3925   21.0721 H         1 RX3         0.0530
     51 H7         29.1024   10.8930   23.1973 H         1 RX3         0.0541
     52 H8         31.0721    9.7822   24.9863 H         1 RX3         0.2216
     53 H9         32.4628    7.6009   25.0664 H         1 RX3         0.0795
     54 H10        29.5757    5.3406   23.0564 H         1 RX3         0.1876
     55 H11        27.6821    4.1522   22.6389 H         1 RX3         0.0556
     56 H12        26.9349    5.7839   24.0532 H         1 RX3         0.0293
     57 H13        27.9916    5.1670   25.3684 H         1 RX3         0.0293
     58 H14        25.0845    4.6823   24.8671 H         1 RX3         0.0267
     59 H15        26.0196    4.5740   26.3970 H         1 RX3         0.0267
     60 H16        25.0833    2.3426   25.0762 H         1 RX3         0.0285
     61 H17        26.6075    2.3239   26.0266 H         1 RX3         0.0285
     62 H18        27.6578    2.0368   24.3878 H         1 RX3         0.0529
     63 H19        27.7158   -0.2752   22.4054 H         1 RX3         0.0787
     64 H20        27.3780   -0.3624   25.1570 H         1 RX3         0.0465
     65 H21        28.7597   -0.5169   24.0196 H         1 RX3         0.0465
     66 H22        26.4376   -2.2653   26.1116 H         1 RX3         0.0557
     67 H23        26.2633   -4.7331   26.3232 H         1 RX3         0.0599
     68 H24        27.3549   -6.2141   24.6457 H         1 RX3         0.0559
     69 H25        28.6128   -5.2135   22.7405 H         1 RX3         0.0599
     70 H26        28.7938   -2.7463   22.5421 H         1 RX3         0.0557
     71 H27        26.9024   -1.5366   21.7096 H         1 RX3         0.1888
     72 H28        23.5386   -1.7080   19.5996 H         1 RX3         0.0776
     73 H29        23.2394   -3.3044   20.3669 H         1 RX3         0.0776
     74 H30        25.6882   -1.7701   17.9004 H         1 RX3         0.0557
     75 H31        23.2044   -5.1366   18.9355 H         1 RX3         0.0557
     76 H32        23.8865   -6.2941   16.8428 H         1 RX3         0.0599
     77 H33        25.4617   -5.1830   15.2745 H         1 RX3         0.0559
     78 H34        26.3780   -2.9363   15.8183 H         1 RX3         0.0599
@<TRIPOS>BOND
     1    1    2 ar 
     2    2    3 ar 
     3    2    4 1  
     4    4    5 1  
     5    4   15 1  
     6    5    6 1  
     7    6    7 1  
     8    6   14 2  
     9    7    8 ar 
    10    7   12 ar 
    11    8    9 ar 
    12    9   10 ar 
    13   10   11 ar 
    14   11   12 ar 
    15   12   13 1  
    16   13   14 1  
    17   15   16 am 
    18   16   17 2  
    19   16   18 1  
    20   18   19 1  
    21   18   22 1  
    22   19   20 1  
    23   20   21 1  
    24   21   22 1  
    25   22   23 1  
    26   23   24 ar 
    27   23   25 ar 
    28   23   26 1  
    29   26   27 1  
    30   26   34 1  
    31   27   28 1  
    32   28   29 ar 
    33   28   33 ar 
    34   29   30 ar 
    35   30   31 ar 
    36   31   32 ar 
    37   32   33 ar 
    38   34   35 am 
    39   35   36 2  
    40   35   37 1  
    41   37   38 1  
    42   38   39 1  
    43   39   40 ar 
    44   39   41 ar 
    45   40   44 ar 
    46   41   42 ar 
    47   42   43 ar 
    48   43   44 ar 
    49    4   45 1  
    50    5   46 1  
    51    5   47 1  
    52    8   48 1  
    53    9   49 1  
    54   10   50 1  
    55   11   51 1  
    56   13   52 1  
    57   14   53 1  
    58   15   54 1  
    59   18   55 1  
    60   19   56 1  
    61   19   57 1  
    62   20   58 1  
    63   20   59 1  
    64   21   60 1  
    65   21   61 1  
    66   22   62 1  
    67   26   63 1  
    68   27   64 1  
    69   27   65 1  
    70   29   66 1  
    71   30   67 1  
    72   31   68 1  
    73   32   69 1  
    74   33   70 1  
    75   34   71 1  
    76   38   72 1  
    77   38   73 1  
    78   40   74 1  
    79   41   75 1  
    80   42   76 1  
    81   43   77 1  
    82   44   78 1  
@<TRIPOS>SUBSTRUCTURE
     1 RX3         1

