4qhc_ligand

Created by X-TOOL on Sun Nov 13 14:28:54 2016
 46 48  0  0  0  0  0  0  0  0999 V2000
  -10.6880   13.5610   -1.1730  S 0  0  0  1  0  2
   -9.4370   14.7630   -1.5740  C 0  0  0  3  0  4
   -9.3050   15.2270   -3.0340  C 0  0  0  2  0  4
   -9.4250   14.2800   -4.1150  N 0  3  0  3  0  4
  -10.6410   13.5600   -4.1770  C 0  0  0  3  0  4
  -10.4960   12.1810   -3.5530  C 0  0  0  2  0  4
  -11.6840   11.3960   -4.0820  C 0  0  0  3  0  4
  -12.3480   10.4250   -3.3590  O 0  0  0  2  0  2
   -7.9310   15.9390   -3.1590  C 0  5  0  1  0  3
   -7.3590   15.9340   -4.2790  O 0  0  0  1  0  1
   -7.4370   16.5020   -2.1420  O 0  0  0  1  0  1
  -10.2920   12.0440   -2.0360  C 0  0  0  2  0  4
   -8.8100   11.6630   -1.8210  C 0  0  0  2  0  4
   -8.2620   10.4940   -2.7930  N 0  3  0  3  0  4
   -7.1850   10.4510   -2.1830  N 0  3  0  2  0  4
   -7.6860   10.1090   -0.7670  C 0  0  0  2  0  4
   -8.5470   11.2780   -0.5670  C 0  0  0  3  0  4
   -6.5980    9.2500   -2.8390  C 0  0  0  3  0  4
   -5.1500    9.0810   -2.0700  S 0  0  0  1  0  2
   -5.2170    9.2560   -0.4680  C 0  0  0  3  0  4
   -6.4220    9.8520    0.2050  C 0  0  0  3  0  4
   -8.4679   14.3327   -1.2814  H 0  0  0  1  0  1
   -9.6396   15.6573   -0.9664  H 0  0  0  1  0  1
  -10.1013   15.9690   -3.1931  H 0  0  0  1  0  1
   -8.6755   13.6121   -4.0244  H 0  0  0  1  0  1
   -9.3217   14.7857   -4.9808  H 0  0  0  1  0  1
  -10.9383   13.4478   -5.2301  H 0  0  0  1  0  1
  -11.4173   14.1194   -3.6345  H 0  0  0  1  0  1
   -9.5887   11.7408   -3.9923  H 0  0  0  1  0  1
  -11.3297   10.8977   -4.9964  H 0  0  0  1  0  1
  -12.4448   12.1459   -4.3443  H 0  0  0  1  0  1
  -12.7041   10.8097   -2.5667  H 0  0  0  1  0  1
  -10.9391   11.2420   -1.6511  H 0  0  0  1  0  1
   -8.2228   12.5699   -2.0278  H 0  0  0  1  0  1
   -8.1724   10.7753   -3.7568  H 0  0  0  1  0  1
   -8.7934    9.6391   -2.7405  H 0  0  0  1  0  1
   -6.6059   11.2748   -2.2276  H 0  0  0  1  0  1
   -8.2986    9.1954   -0.7586  H 0  0  0  1  0  1
   -9.4694   11.0054   -0.0333  H 0  0  0  1  0  1
   -8.0213   12.0681   -0.0107  H 0  0  0  1  0  1
   -6.4564    9.4173   -3.9169  H 0  0  0  1  0  1
   -7.2331    8.3651   -2.6856  H 0  0  0  1  0  1
   -4.3608    9.8873   -0.1882  H 0  0  0  1  0  1
   -5.0872    8.2511   -0.0398  H 0  0  0  1  0  1
   -6.7399    9.1675    1.0052  H 0  0  0  1  0  1
   -6.1263   10.8166    0.6434  H 0  0  0  1  0  1
  1  2  1  0  0  1
  1 12  1  0  0  1
  2  3  1  0  0  1
  3  4  1  0  0  1
  3  9  1  0  0  2
  4  5  1  0  0  1
  5  6  1  0  0  1
  6  7  1  0  0  2
  6 12  1  0  0  1
  7  8  1  0  0  2
  9 10  2  0  0  2
  9 11  2  0  0  2
 12 13  1  0  0  2
 13 14  1  0  0  1
 13 17  1  0  0  1
 14 15  1  0  0  1
 15 16  1  0  0  1
 15 18  1  0  0  1
 16 17  1  0  0  1
 16 21  1  0  0  1
 18 19  1  0  0  1
 19 20  1  0  0  1
 20 21  1  0  0  1
  2 22  1  0  0  2
  2 23  1  0  0  2
  3 24  1  0  0  2
  4 25  1  0  0  2
  4 26  1  0  0  2
  5 27  1  0  0  2
  5 28  1  0  0  2
  6 29  1  0  0  2
  7 30  1  0  0  2
  7 31  1  0  0  2
  8 32  1  0  0  2
 12 33  1  0  0  2
 13 34  1  0  0  2
 14 35  1  0  0  2
 14 36  1  0  0  2
 15 37  1  0  0  2
 16 38  1  0  0  2
 17 39  1  0  0  2
 17 40  1  0  0  2
 18 41  1  0  0  2
 18 42  1  0  0  2
 20 43  1  0  0  2
 20 44  1  0  0  2
 21 45  1  0  0  2
 21 46  1  0  0  2
M  END
> <MOLECULAR_FORMULA>
C13H25N3O3S2

> <MOLECULAR_WEIGHT>
335.3

> <NUM_HB_ATOMS>
8  

> <NUM_ROTOR>
2  

> <XLOGP2>
-2.85

$$$$
