### 
### Created by X-TOOL on Fri Sep 26 17:35:01 2014
### 

@<TRIPOS>MOLECULE
4np9_ligand
   33    33     1     0     0
SMALL
GAST_HUCK


@<TRIPOS>ATOM
      1 C1         14.4520    1.6120   38.9690 C.3       1 I3P         0.1460
      2 C2         13.4470    1.0010   37.9960 C.3       1 I3P         0.1168
      3 C3         12.1280    0.6360   38.6610 C.3       1 I3P         0.1172
      4 C4         11.5700    1.7320   39.5800 C.3       1 I3P         0.1503
      5 C5         12.6610    2.2760   40.4720 C.3       1 I3P         0.1506
      6 C6         13.8180    2.8010   39.6740 C.3       1 I3P         0.1215
      7 O1         15.6650    2.0110   38.3270 O.3       1 I3P        -0.2676
      8 O2         13.1870    1.9350   36.9330 O.3       1 I3P        -0.3861
      9 O3         11.1620    0.3520   37.6660 O.3       1 I3P        -0.3861
     10 O4         10.5530    1.2170   40.4180 O.3       1 I3P        -0.2672
     11 O5         12.1610    3.3150   41.3260 O.3       1 I3P        -0.2672
     12 O6         14.7220    3.4380   40.5710 O.3       1 I3P        -0.3858
     13 P1         17.0270    1.7850   39.1470 P.3       1 I3P         0.2013
     14 O11        17.3950    0.3270   39.1440 O.co2     1 I3P        -0.5537
     15 O12        16.8120    2.2370   40.5870 O.co2     1 I3P        -0.5537
     16 O13        18.1460    2.5990   38.5290 O.co2     1 I3P        -0.5537
     17 P4          9.2440    2.1200   40.7850 P.3       1 I3P         0.2013
     18 O41         8.5720    2.5790   39.5110 O.co2     1 I3P        -0.5537
     19 O42         9.6010    3.3340   41.6090 O.co2     1 I3P        -0.5537
     20 O43         8.2730    1.2810   41.5850 O.co2     1 I3P        -0.5537
     21 P5         12.7230    3.3790   42.8100 P.3       1 I3P         0.2013
     22 O51        13.7350    4.5040   42.8920 O.co2     1 I3P        -0.5537
     23 O52        13.3970    2.0870   43.1900 O.co2     1 I3P        -0.5537
     24 O53        11.5850    3.6450   43.7750 O.co2     1 I3P        -0.5537
     25 H1         14.7024    0.8511   39.7229 H         1 I3P         0.0703
     26 H2         13.8876    0.0864   37.5726 H         1 I3P         0.0650
     27 H3         12.2935   -0.2667   39.2674 H         1 I3P         0.0650
     28 H4         11.1602    2.5434   38.9606 H         1 I3P         0.0706
     29 H5         13.0237    1.4522   41.1042 H         1 I3P         0.0706
     30 H6         13.4699    3.5299   38.9274 H         1 I3P         0.0654
     31 H7         12.6049    1.5355   36.2973 H         1 I3P         0.2100
     32 H8         10.9854    1.1389   37.1639 H         1 I3P         0.2100
     33 H9         14.2776    4.1522   41.0126 H         1 I3P         0.2100
@<TRIPOS>BOND
     1    1    2 1  
     2    1    6 1  
     3    1    7 1  
     4    2    3 1  
     5    2    8 1  
     6    3    4 1  
     7    3    9 1  
     8    4    5 1  
     9    4   10 1  
    10    5    6 1  
    11    5   11 1  
    12    6   12 1  
    13    7   13 1  
    14   10   17 1  
    15   11   21 1  
    16   13   14 ar 
    17   13   15 ar 
    18   13   16 ar 
    19   17   18 ar 
    20   17   19 ar 
    21   17   20 ar 
    22   21   22 ar 
    23   21   23 ar 
    24   21   24 ar 
    25    1   25 1  
    26    2   26 1  
    27    3   27 1  
    28    4   28 1  
    29    5   29 1  
    30    6   30 1  
    31    8   31 1  
    32    9   32 1  
    33   12   33 1  
@<TRIPOS>SUBSTRUCTURE
     1 I3P         1

