### 
### Created by X-TOOL on Fri Sep 26 17:34:58 2014
### 

@<TRIPOS>MOLECULE
3w07_ligand
   32    33     1     0     0
SMALL
GAST_HUCK


@<TRIPOS>ATOM
      1 N1         16.6130   40.2200   35.8650 N.am      1 U5P        -0.1592
      2 C2         15.6600   39.4660   36.5320 C.2       1 U5P         0.3328
      3 N3         14.3640   39.8100   36.3480 N.am      1 U5P        -0.1865
      4 C4         13.9080   40.8370   35.5420 C.2       1 U5P         0.1822
      5 C5         14.9010   41.5900   34.8970 C.2       1 U5P         0.0062
      6 C6         16.2180   41.2370   34.9620 C.2       1 U5P         0.0591
      7 O2         15.9700   38.5160   37.2280 O.2       1 U5P        -0.3815
      8 O4         12.6730   41.0020   35.4750 O.2       1 U5P        -0.4124
      9 C1'        18.0240   39.8990   35.9710 C.3       1 U5P         0.2059
     10 C2'        18.6140   39.9020   37.3700 C.3       1 U5P         0.1387
     11 O2'        19.1030   41.1590   37.7370 O.3       1 U5P        -0.3836
     12 C3'        19.7430   38.8950   37.2210 C.3       1 U5P         0.1149
     13 C4'        19.1560   37.8860   36.2720 C.3       1 U5P         0.1182
     14 O3'        20.8410   39.5530   36.5940 O.3       1 U5P        -0.3864
     15 O4'        18.2600   38.6160   35.4180 O.3       1 U5P        -0.3363
     16 C5'        18.4400   36.7360   36.9580 C.3       1 U5P         0.1072
     17 O5'        19.4600   35.9430   37.5150 O.3       1 U5P        -0.2734
     18 P          19.1290   34.6010   38.3520 P.3       1 U5P         0.2008
     19 O1P        17.8180   34.8100   39.0860 O.co2     1 U5P        -0.5537
     20 O2P        20.3270   34.4950   39.2570 O.co2     1 U5P        -0.5537
     21 O3P        19.0400   33.4700   37.3670 O.co2     1 U5P        -0.5537
     22 H1         13.6759   39.2746   36.8378 H         1 U5P         0.2259
     23 H2         14.6146   42.4758   34.3320 H         1 U5P         0.0258
     24 H3         16.9541   41.7301   34.3288 H         1 U5P         0.1178
     25 H4         18.5710   40.6480   35.3796 H         1 U5P         0.0997
     26 H5         17.8749   39.5692   38.1136 H         1 U5P         0.0676
     27 H6         19.7841   41.4223   37.1294 H         1 U5P         0.2101
     28 H7         20.0408   38.4456   38.1798 H         1 U5P         0.0648
     29 H8         19.9685   37.4595   35.6654 H         1 U5P         0.0650
     30 H9         21.2113   40.1900   37.1937 H         1 U5P         0.2100
     31 H10        17.8559   36.1558   36.2285 H         1 U5P         0.0639
     32 H11        17.7717   37.1134   37.7460 H         1 U5P         0.0639
@<TRIPOS>BOND
     1    1    2 am 
     2    1    6 1  
     3    1    9 1  
     4    2    3 am 
     5    2    7 2  
     6    3    4 am 
     7    4    5 1  
     8    4    8 2  
     9    5    6 2  
    10    9   10 1  
    11    9   15 1  
    12   10   11 1  
    13   10   12 1  
    14   12   13 1  
    15   12   14 1  
    16   13   15 1  
    17   13   16 1  
    18   16   17 1  
    19   17   18 1  
    20   18   19 ar 
    21   18   20 ar 
    22   18   21 ar 
    23    3   22 1  
    24    5   23 1  
    25    6   24 1  
    26    9   25 1  
    27   10   26 1  
    28   11   27 1  
    29   12   28 1  
    30   13   29 1  
    31   14   30 1  
    32   16   31 1  
    33   16   32 1  
@<TRIPOS>SUBSTRUCTURE
     1 U5P         1

