### 
### Created by X-TOOL on Fri Sep 26 17:34:37 2014
### 

@<TRIPOS>MOLECULE
2e92_ligand
   28    29     1     0     0
SMALL
GAST_HUCK


@<TRIPOS>ATOM
      1 O          29.1470   47.3490    5.5090 O.3       1 M0N        -0.3581
      2 C9         28.8910   45.9840    5.8550 C.3       1 M0N         0.2141
      3 C8         29.4250   45.6760    7.2530 C.3       1 M0N         0.0618
      4 C2         28.9430   46.6950    8.2960 C.2       1 M0N         0.0763
      5 C1         28.4220   47.8990    8.1110 C.2       1 M0N        -0.0352
      6 N1         28.1220   48.4370    9.2960 N.2       1 M0N        -0.3568
      7 C7         28.4510   47.5920   10.2700 C.2       1 M0N         0.1284
      8 C6         28.3720   47.6690   11.6540 C.2       1 M0N        -0.0215
      9 C5         28.8280   46.6130   12.4360 C.2       1 M0N        -0.0637
     10 C4         29.3630   45.4740   11.8370 C.2       1 M0N        -0.0287
     11 C3         29.4500   45.3820   10.4560 C.2       1 M0N         0.0795
     12 N2         28.9910   46.4490    9.6680 N.pl3     1 M0N        -0.2030
     13 P1         29.8040   44.9070    4.6450 P.3       1 M0N         0.1119
     14 O2         29.4080   45.1920    3.2500 O.co2     1 M0N        -0.5593
     15 O3         31.3750   45.1480    4.9070 O.co2     1 M0N        -0.5593
     16 O1         29.5030   43.4110    5.1490 O.co2     1 M0N        -0.5593
     17 P2         27.0700   45.6020    5.7100 P.3       1 M0N         0.1119
     18 O5         26.9010   44.0580    6.1380 O.co2     1 M0N        -0.5593
     19 O6         26.7440   45.6520    4.1380 O.co2     1 M0N        -0.5593
     20 O4         26.2220   46.5380    6.4800 O.co2     1 M0N        -0.5593
     21 H1         28.6894   47.9194    6.1154 H         1 M0N         0.2134
     22 H2         30.5245   45.6923    7.2237 H         1 M0N         0.0477
     23 H3         29.0809   44.6746    7.5509 H         1 M0N         0.0477
     24 H4         28.2633   48.3751    7.1445 H         1 M0N         0.0387
     25 H5         27.9531   48.5559   12.1271 H         1 M0N         0.0573
     26 H6         28.7667   46.6765   13.5214 H         1 M0N         0.0616
     27 H7         29.7149   44.6510   12.4573 H         1 M0N         0.0540
     28 H8         29.8695   44.4924    9.9884 H         1 M0N         0.1187
@<TRIPOS>BOND
     1    1    2 1  
     2    2    3 1  
     3    2   13 1  
     4    2   17 1  
     5    3    4 1  
     6    4    5 2  
     7    4   12 1  
     8    5    6 1  
     9    6    7 2  
    10    7    8 1  
    11    7   12 1  
    12    8    9 2  
    13    9   10 1  
    14   10   11 2  
    15   11   12 1  
    16   13   14 ar 
    17   13   15 ar 
    18   13   16 ar 
    19   17   18 ar 
    20   17   19 ar 
    21   17   20 ar 
    22    1   21 1  
    23    3   22 1  
    24    3   23 1  
    25    5   24 1  
    26    8   25 1  
    27    9   26 1  
    28   10   27 1  
    29   11   28 1  
@<TRIPOS>SUBSTRUCTURE
     1 M0N         1

