### 
### Created by X-TOOL on Fri Sep 26 17:34:14 2014
### 

@<TRIPOS>MOLECULE
1amw_ligand
   39    41     1     0     0
SMALL
GAST_HUCK


@<TRIPOS>ATOM
      1 PB         10.5090   -4.8700   -3.7360 P.3       1 ADP         0.2069
      2 O1B         9.7050   -4.2170   -4.8630 O.co2     1 ADP        -0.5891
      3 O2B        11.8930   -5.5900   -4.2890 O.co2     1 ADP        -0.5891
      4 O3B         9.6530   -5.8370   -2.9410 O.co2     1 ADP        -0.5891
      5 PA         11.8240   -3.9720   -1.4370 P.3       1 ADP         0.3276
      6 O1A        10.9340   -3.5680   -0.3250 O.co2     1 ADP        -0.5556
      7 O2A        12.2960   -5.3730   -1.2860 O.co2     1 ADP        -0.5556
      8 O3A        11.0700   -3.7970   -2.7730 O.3       1 ADP        -0.1548
      9 O5         13.0580   -2.9530   -1.6250 O.3       1 ADP        -0.2436
     10 C5         12.7730   -1.5790   -1.7630 C.3       1 ADP         0.1132
     11 C4         13.2040   -1.0410   -3.1430 C.3       1 ADP         0.1189
     12 O4         14.5870   -0.6290   -3.0930 O.3       1 ADP        -0.3364
     13 C3         13.0680   -1.9640   -4.3440 C.3       1 ADP         0.1149
     14 O3         11.8090   -1.8630   -5.0130 O.3       1 ADP        -0.3864
     15 C2         14.2060   -1.5650   -5.2380 C.3       1 ADP         0.1385
     16 O2         13.8390   -0.5360   -6.1600 O.3       1 ADP        -0.3836
     17 C1         15.2700   -1.1150   -4.2620 C.3       1 ADP         0.2010
     18 N9         16.2860   -2.1950   -4.0060 N.pl3     1 ADP        -0.1919
     19 C8         16.3210   -3.0830   -2.9990 C.2       1 ADP         0.1123
     20 N7         17.4040   -3.8670   -3.1510 N.2       1 ADP        -0.2958
     21 C5         18.0520   -3.4790   -4.2370 C.ar      1 ADP         0.1045
     22 C6         19.2190   -3.8720   -4.9270 C.ar      1 ADP         0.1298
     23 N6         19.9740   -4.8930   -4.4760 N.pl3     1 ADP        -0.3152
     24 N1         19.5980   -3.2110   -6.0710 N.ar      1 ADP        -0.2698
     25 C2         18.8800   -2.1790   -6.5710 C.ar      1 ADP         0.0533
     26 N3         17.7600   -1.8000   -5.9240 N.ar      1 ADP        -0.2714
     27 C4         17.3230   -2.4050   -4.7840 C.ar      1 ADP         0.1613
     28 H1         13.3105   -1.0234   -0.9804 H         1 ADP         0.0648
     29 H2         11.6903   -1.4260   -1.6434 H         1 ADP         0.0648
     30 H3         12.5791   -0.1581   -3.3427 H         1 ADP         0.0651
     31 H4         13.1958   -3.0073   -4.0195 H         1 ADP         0.0648
     32 H5         11.6883   -0.9742   -5.3259 H         1 ADP         0.2100
     33 H6         14.5608   -2.4339   -5.8116 H         1 ADP         0.0676
     34 H7         13.1274   -0.8435   -6.7092 H         1 ADP         0.2101
     35 H8         15.8131   -0.2685   -4.7076 H         1 ADP         0.0996
     36 H9         15.5930   -3.1564   -2.1925 H         1 ADP         0.1349
     37 H10        20.8235   -5.1707   -4.9880 H         1 ADP         0.1820
     38 H11        19.7016   -5.3957   -3.6192 H         1 ADP         0.1820
     39 H12        19.1986   -1.6681   -7.4724 H         1 ADP         0.0996
@<TRIPOS>BOND
     1    1    2 ar 
     2    1    3 ar 
     3    1    4 ar 
     4    8    1 1  
     5    5    6 ar 
     6    5    7 ar 
     7    5    8 1  
     8    5    9 1  
     9    9   10 1  
    10   10   11 1  
    11   11   12 1  
    12   11   13 1  
    13   12   17 1  
    14   13   14 1  
    15   13   15 1  
    16   15   16 1  
    17   15   17 1  
    18   17   18 1  
    19   18   19 1  
    20   18   27 1  
    21   19   20 2  
    22   20   21 1  
    23   21   22 ar 
    24   21   27 ar 
    25   22   23 1  
    26   22   24 ar 
    27   24   25 ar 
    28   25   26 ar 
    29   26   27 ar 
    30   10   28 1  
    31   10   29 1  
    32   11   30 1  
    33   13   31 1  
    34   14   32 1  
    35   15   33 1  
    36   16   34 1  
    37   17   35 1  
    38   19   36 1  
    39   23   37 1  
    40   23   38 1  
    41   25   39 1  
@<TRIPOS>SUBSTRUCTURE
     1 ADP         1

