### 
### Created by X-TOOL on Fri Sep 26 17:34:51 2014
### 

@<TRIPOS>MOLECULE
3q71_ligand
   57    60     1     0     0
SMALL
GAST_HUCK


@<TRIPOS>ATOM
      1 N1        -26.1410    7.4810  -26.1010 N.ar      1 AR6        -0.2698
      2 C2        -26.6720    7.7100  -24.9000 C.ar      1 AR6         0.0533
      3 N3        -26.2090    8.6540  -24.0750 N.ar      1 AR6        -0.2714
      4 C4        -25.1560    9.4030  -24.4570 C.ar      1 AR6         0.1613
      5 C5        -24.5760    9.1870  -25.6930 C.ar      1 AR6         0.1045
      6 C6        -25.0910    8.2070  -26.5250 C.ar      1 AR6         0.1298
      7 N6        -24.5250    8.0090  -27.7070 N.pl3     1 AR6        -0.3152
      8 N7        -23.5710   10.0480  -25.8240 N.2       1 AR6        -0.2958
      9 C8        -23.5050   10.7840  -24.7170 C.2       1 AR6         0.1123
     10 N9        -24.4680   10.3820  -23.8790 N.pl3     1 AR6        -0.1919
     11 PA        -24.6150   16.1480  -24.0100 P.3       1 AR6         0.2972
     12 PB        -26.4940   17.9730  -22.7600 P.3       1 AR6         0.2972
     13 C1'       -24.7700   10.9580  -22.5880 C.3       1 AR6         0.2010
     14 O1A       -24.5300   15.6700  -25.3940 O.co2     1 AR6        -0.6127
     15 O1B       -27.9870   17.9130  -22.7760 O.co2     1 AR6        -0.6127
     16 C1D       -26.0790   22.2470  -25.4920 C.3       1 AR6         0.1854
     17 O1D       -26.9450   22.9730  -26.2740 O.3       1 AR6        -0.3649
     18 C2'       -23.6440   11.7200  -21.9370 C.3       1 AR6         0.1385
     19 O2'       -22.9660   10.8410  -21.0600 O.3       1 AR6        -0.3836
     20 O2A       -23.5300   17.0070  -23.4920 O.co2     1 AR6        -0.6127
     21 O2B       -25.7600   17.8200  -21.4870 O.co2     1 AR6        -0.6127
     22 C2D       -24.7130   22.0690  -26.1570 C.3       1 AR6         0.1339
     23 O2D       -24.6060   22.9350  -27.2750 O.3       1 AR6        -0.3841
     24 C3'       -24.4180   12.7600  -21.1380 C.3       1 AR6         0.1149
     25 O3'       -24.7260   12.2140  -19.8580 O.3       1 AR6        -0.3864
     26 O3A       -26.0410   16.8450  -23.8400 O.3       1 AR6        -0.1319
     27 C3D       -24.7360   20.6480  -26.6490 C.3       1 AR6         0.1144
     28 O3D       -25.2790   20.6440  -27.9680 O.3       1 AR6        -0.3864
     29 C4'       -25.7330   12.9420  -21.9190 C.3       1 AR6         0.1189
     30 O4'       -25.6300   12.0370  -23.0310 O.3       1 AR6        -0.3364
     31 C4D       -25.7870   20.0030  -25.7710 C.3       1 AR6         0.1184
     32 O4D       -26.7550   21.0030  -25.5480 O.3       1 AR6        -0.3403
     33 C5'       -25.8820   14.3940  -22.4160 C.3       1 AR6         0.1128
     34 O5'       -24.6810   14.8430  -23.0660 O.3       1 AR6        -0.2476
     35 C5D       -25.2330   19.5190  -24.4800 C.3       1 AR6         0.1128
     36 O5D       -26.2440   19.3660  -23.4990 O.3       1 AR6        -0.2476
     37 H1        -27.5133    7.1062  -24.5795 H         1 AR6         0.0996
     38 H2        -23.7221    8.5855  -27.9966 H         1 AR6         0.1820
     39 H3        -24.8880    7.2786  -28.3360 H         1 AR6         0.1820
     40 H4        -22.7873   11.5803  -24.5252 H         1 AR6         0.1349
     41 H5        -25.2303   10.2340  -21.8996 H         1 AR6         0.0996
     42 H6        -25.9746   22.6530  -24.4750 H         1 AR6         0.0935
     43 H7        -26.9919   22.5828  -27.1388 H         1 AR6         0.2126
     44 H8        -22.9522   12.1716  -22.6632 H         1 AR6         0.0676
     45 H9        -23.5716   10.5244  -20.4000 H         1 AR6         0.2101
     46 H10       -23.8901   22.2449  -25.4486 H         1 AR6         0.0671
     47 H11       -25.2899   22.7281  -27.9010 H         1 AR6         0.2101
     48 H12       -23.8611   13.7039  -21.0432 H         1 AR6         0.0648
     49 H13       -23.9197   11.9933  -19.4067 H         1 AR6         0.2100
     50 H14       -23.7537   20.1559  -26.5952 H         1 AR6         0.0648
     51 H15       -24.7351   21.1782  -28.5348 H         1 AR6         0.2100
     52 H16       -26.5953   12.6821  -21.2874 H         1 AR6         0.0651
     53 H17       -26.2392   19.1516  -26.3008 H         1 AR6         0.0651
     54 H18       -26.0919   15.0483  -21.5570 H         1 AR6         0.0648
     55 H19       -26.7177   14.4459  -23.1294 H         1 AR6         0.0648
     56 H20       -24.4907   20.2448  -24.1164 H         1 AR6         0.0648
     57 H21       -24.7454   18.5466  -24.6437 H         1 AR6         0.0648
@<TRIPOS>BOND
     1    2    1 ar 
     2    6    1 ar 
     3    3    2 ar 
     4    4    3 ar 
     5    4    5 ar 
     6   10    4 1  
     7    5    6 ar 
     8    8    5 1  
     9    6    7 1  
    10    9    8 2  
    11   10    9 1  
    12   13   10 1  
    13   11   14 ar 
    14   11   20 ar 
    15   26   11 1  
    16   11   34 1  
    17   12   15 ar 
    18   12   21 ar 
    19   12   26 1  
    20   36   12 1  
    21   13   18 1  
    22   30   13 1  
    23   16   17 1  
    24   16   22 1  
    25   32   16 1  
    26   18   19 1  
    27   24   18 1  
    28   22   23 1  
    29   27   22 1  
    30   24   25 1  
    31   29   24 1  
    32   27   28 1  
    33   31   27 1  
    34   29   30 1  
    35   33   29 1  
    36   31   32 1  
    37   35   31 1  
    38   34   33 1  
    39   35   36 1  
    40    2   37 1  
    41    7   38 1  
    42    7   39 1  
    43    9   40 1  
    44   13   41 1  
    45   16   42 1  
    46   17   43 1  
    47   18   44 1  
    48   19   45 1  
    49   22   46 1  
    50   23   47 1  
    51   24   48 1  
    52   25   49 1  
    53   27   50 1  
    54   28   51 1  
    55   29   52 1  
    56   31   53 1  
    57   33   54 1  
    58   33   55 1  
    59   35   56 1  
    60   35   57 1  
@<TRIPOS>SUBSTRUCTURE
     1 AR6         1

