### 
### Created by X-TOOL on Fri Sep 26 17:35:00 2014
### 

@<TRIPOS>MOLECULE
4ca8_ligand
   87    91     1     0     0
SMALL
GAST_HUCK


@<TRIPOS>ATOM
      1 CBM        25.0690   -1.4040  -44.7990 C.2       1 3ES         0.3232
      2 OAB        24.1390   -1.2400  -44.0070 O.2       1 3ES        -0.3774
      3 OBJ        24.9020   -2.2720  -45.8310 O.3       1 3ES        -0.2506
      4 CBB        24.8230   -1.7660  -47.1390 C.3       1 3ES         0.1113
      5 CBP        24.7530   -2.8320  -48.0470 C.ar      1 3ES        -0.0130
      6 CAQ        25.4400   -2.7530  -49.2630 C.ar      1 3ES        -0.0578
      7 CAK        25.3680   -3.7980  -50.1840 C.ar      1 3ES        -0.0685
      8 CAH        24.6110   -4.9280  -49.8940 C.ar      1 3ES        -0.0687
      9 CAL        23.9340   -5.0110  -48.6790 C.ar      1 3ES        -0.0685
     10 CAR        23.9970   -3.9650  -47.7590 C.ar      1 3ES        -0.0578
     11 OAD        25.2640    2.1410  -44.3550 O.co2     1 3ES        -0.6174
     12 PBY        26.5480    1.8000  -43.7470 P.3       1 3ES         0.0154
     13 OAG        27.8170    2.0910  -44.4230 O.co2     1 3ES        -0.6174
     14 CBX        26.4710   -0.0120  -43.3530 C.3       1 3ES         0.1176
     15 NBI        26.2470   -0.8190  -44.5730 N.am      1 3ES        -0.2418
     16 CBE        27.7490   -0.5050  -42.6920 C.3       1 3ES         0.0205
     17 CBQ        27.5890   -1.8840  -42.4340 C.ar      1 3ES        -0.0393
     18 CAS        26.9010   -2.3280  -41.3050 C.ar      1 3ES        -0.0602
     19 CAM        26.7500   -3.6920  -41.0690 C.ar      1 3ES        -0.0686
     20 CAI        27.2680   -4.6330  -41.9500 C.ar      1 3ES        -0.0687
     21 CAN        27.9580   -4.2050  -43.0800 C.ar      1 3ES        -0.0686
     22 CAT        28.1130   -2.8410  -43.3140 C.ar      1 3ES        -0.0602
     23 CBC        26.6190    4.9370  -43.0960 C.3       1 3ES         0.0422
     24 CBS        26.8170    6.4720  -42.9010 C.2       1 3ES         0.1411
     25 CBA        27.3380    7.1280  -41.8690 C.2       1 3ES        -0.0269
     26 OBK        26.5030    7.3900  -43.8690 O.3       1 3ES        -0.1670
     27 NBG        26.8610    8.6940  -43.3860 N.2       1 3ES        -0.1519
     28 CBU        27.3560    8.4430  -42.1760 C.2       1 3ES         0.0430
     29 CBT        27.8240    9.4100  -41.3890 C.ar      1 3ES        -0.0150
     30 CAU        28.8010    9.1230  -40.4240 C.ar      1 3ES        -0.0551
     31 CAO        29.2920   10.1450  -39.6160 C.ar      1 3ES        -0.0621
     32 CAJ        28.8250   11.4490  -39.7820 C.ar      1 3ES        -0.0626
     33 CAP        27.8700   11.7410  -40.7570 C.ar      1 3ES        -0.0621
     34 CAV        27.3720   10.7250  -41.5710 C.ar      1 3ES        -0.0551
     35 CBF        26.6050    2.6580  -42.0120 C.3       1 3ES         0.0375
     36 CBV        27.2860    4.0640  -42.0320 C.3       1 3ES         0.0788
     37 CBN        28.8240    3.8680  -42.2150 C.2       1 3ES         0.1848
     38 OAC        29.3430    2.7790  -41.9460 O.2       1 3ES        -0.3964
     39 N          29.5510    4.9320  -42.6270 N.am      1 3ES        -0.2694
     40 CA         31.0320    4.8470  -42.7030 C.3       1 3ES         0.1024
     41 C          31.5710    4.8990  -41.2490 C.2       1 3ES         0.0619
     42 O          32.7860    4.6950  -41.0750 O.co2     1 3ES        -0.5665
     43 CB         31.7620    5.9550  -43.4280 C.3       1 3ES         0.0108
     44 CG         30.9940    6.9690  -44.0410 C.ar      1 3ES        -0.0499
     45 CD1        31.0220    8.2820  -43.5560 C.ar      1 3ES        -0.0686
     46 CD2        30.2880    6.6980  -45.2150 C.ar      1 3ES        -0.0686
     47 CE1        30.3050    9.2940  -44.2030 C.ar      1 3ES        -0.0398
     48 CE2        29.5720    7.6960  -45.8730 C.ar      1 3ES        -0.0398
     49 CZ         29.5900    8.9950  -45.3680 C.ar      1 3ES         0.0805
     50 OH         28.8980    9.9580  -46.0250 O.3       1 3ES        -0.3376
     51 OXT        30.7500    5.1760  -40.3530 O.co2     1 3ES        -0.5665
     52 H1         25.7158   -1.1600  -47.3527 H         1 3ES         0.0776
     53 H2         23.9233   -1.1408  -47.2370 H         1 3ES         0.0776
     54 H3         26.0321   -1.8741  -49.4910 H         1 3ES         0.0557
     55 H4         25.9017   -3.7294  -51.1250 H         1 3ES         0.0599
     56 H5         24.5480   -5.7399  -50.6094 H         1 3ES         0.0559
     57 H6         23.3533   -5.8964  -48.4469 H         1 3ES         0.0599
     58 H7         23.4581   -4.0340  -46.8210 H         1 3ES         0.0557
     59 H8         25.6313   -0.1745  -42.6612 H         1 3ES         0.0787
     60 H9         26.9875   -0.9273  -45.2363 H         1 3ES         0.1888
     61 H10        27.9172    0.0363  -41.7493 H         1 3ES         0.0465
     62 H11        28.6050   -0.3456  -43.3641 H         1 3ES         0.0465
     63 H12        26.4827   -1.6094  -40.6094 H         1 3ES         0.0557
     64 H13        26.2199   -4.0248  -40.1839 H         1 3ES         0.0599
     65 H14        27.1358   -5.6918  -41.7587 H         1 3ES         0.0559
     66 H15        28.3720   -4.9282  -43.7733 H         1 3ES         0.0599
     67 H16        28.6506   -2.5121  -44.1960 H         1 3ES         0.0557
     68 H17        27.0351    4.6600  -44.0759 H         1 3ES         0.0513
     69 H18        25.5393    4.7269  -43.0834 H         1 3ES         0.0513
     70 H19        27.6888    6.6831  -40.9390 H         1 3ES         0.0289
     71 H20        29.1716    8.1109  -40.3081 H         1 3ES         0.0616
     72 H21        30.0365    9.9276  -38.8586 H         1 3ES         0.0615
     73 H22        29.2068   12.2417  -39.1488 H         1 3ES         0.0610
     74 H23        27.5156   12.7579  -40.8812 H         1 3ES         0.0615
     75 H24        26.6407   10.9497  -42.3390 H         1 3ES         0.0616
     76 H25        27.1651    2.0101  -41.3218 H         1 3ES         0.0495
     77 H26        25.5736    2.7763  -41.6484 H         1 3ES         0.0495
     78 H27        27.1249    4.5488  -41.0578 H         1 3ES         0.0581
     79 H28        29.0884    5.7811  -42.8820 H         1 3ES         0.1876
     80 H29        31.2932    3.8899  -43.1780 H         1 3ES         0.0747
     81 H30        32.3697    5.4849  -44.2152 H         1 3ES         0.0446
     82 H31        32.4231    6.4433  -42.6969 H         1 3ES         0.0446
     83 H32        31.6040    8.5163  -42.6720 H         1 3ES         0.0530
     84 H33        30.2971    5.6932  -45.6217 H         1 3ES         0.0530
     85 H34        30.3033   10.3022  -43.8048 H         1 3ES         0.0525
     86 H35        29.0067    7.4645  -46.7685 H         1 3ES         0.0525
     87 H36        29.0003   10.7859  -45.5704 H         1 3ES         0.2458
@<TRIPOS>BOND
     1    1    2 2  
     2    1    3 1  
     3   15    1 am 
     4    3    4 1  
     5    4    5 1  
     6    5    6 ar 
     7    5   10 ar 
     8    6    7 ar 
     9    7    8 ar 
    10    9    8 ar 
    11   10    9 ar 
    12   12   11 ar 
    13   12   13 ar 
    14   12   14 1  
    15   35   12 1  
    16   14   15 1  
    17   14   16 1  
    18   16   17 1  
    19   17   18 ar 
    20   17   22 ar 
    21   18   19 ar 
    22   19   20 ar 
    23   21   20 ar 
    24   22   21 ar 
    25   23   24 1  
    26   36   23 1  
    27   24   25 2  
    28   24   26 1  
    29   25   28 1  
    30   26   27 1  
    31   27   28 2  
    32   28   29 1  
    33   29   30 ar 
    34   29   34 ar 
    35   30   31 ar 
    36   31   32 ar 
    37   33   32 ar 
    38   34   33 ar 
    39   35   36 1  
    40   36   37 1  
    41   37   38 2  
    42   37   39 am 
    43   39   40 1  
    44   40   41 1  
    45   40   43 1  
    46   41   42 ar 
    47   41   51 ar 
    48   43   44 1  
    49   44   45 ar 
    50   44   46 ar 
    51   45   47 ar 
    52   46   48 ar 
    53   47   49 ar 
    54   48   49 ar 
    55   49   50 1  
    56    4   52 1  
    57    4   53 1  
    58    6   54 1  
    59    7   55 1  
    60    8   56 1  
    61    9   57 1  
    62   10   58 1  
    63   14   59 1  
    64   15   60 1  
    65   16   61 1  
    66   16   62 1  
    67   18   63 1  
    68   19   64 1  
    69   20   65 1  
    70   21   66 1  
    71   22   67 1  
    72   23   68 1  
    73   23   69 1  
    74   25   70 1  
    75   30   71 1  
    76   31   72 1  
    77   32   73 1  
    78   33   74 1  
    79   34   75 1  
    80   35   76 1  
    81   35   77 1  
    82   36   78 1  
    83   39   79 1  
    84   40   80 1  
    85   43   81 1  
    86   43   82 1  
    87   45   83 1  
    88   46   84 1  
    89   47   85 1  
    90   48   86 1  
    91   50   87 1  
@<TRIPOS>SUBSTRUCTURE
     1 3ES         1

