REMARK  4 active torsions:
REMARK  status: ('A' for Active; 'I' for Inactive)
REMARK    1  A    between atoms: S21_2  and  N24_4 
REMARK    2  A    between atoms: S21_2  and  C19_5 
REMARK    3  A    between atoms: C16_7  and  C14_10 
REMARK    4  A    between atoms: N11_12  and  C10_15 
ROOT
ATOM      1  C14 9FK d          -3.803   5.299  14.349  0.00  0.00     0.109 A 
ATOM      2  C15 9FK d          -2.433   5.211  14.148  0.00  0.00     0.149 A 
ATOM      3  N11 9FK d          -2.170   6.430  13.598  0.00  0.00    -0.246 N 
ATOM      4  N12 9FK d          -3.282   7.237  13.482  0.00  0.00     0.010 NA
ATOM      5  N13 9FK d          -4.331   6.516  13.987  0.00  0.00    -0.157 NA
ENDROOT
BRANCH   1   6
ATOM      6  C16 9FK d          -4.644   4.294  15.012  0.00  0.00     0.037 A 
ATOM      7  S20 9FK d          -4.170   2.774  15.535  0.00  0.00    -0.074 SA
ATOM      8  C19 9FK d          -5.716   2.360  16.188  0.00  0.00     0.120 A 
ATOM      9  C18 9FK d          -6.621   3.421  15.885  0.00  0.00     0.034 A 
ATOM     10  C17 9FK d          -5.993   4.504  15.291  0.00  0.00     0.023 A 
BRANCH   8  11
ATOM     11  S21 9FK d          -6.127   0.891  16.986  0.00  0.00     0.263 S 
ATOM     12  O22 9FK d          -7.601   0.880  16.928  0.00  0.00    -0.200 OA
ATOM     13  O23 9FK d          -5.499   1.001  18.251  0.00  0.00    -0.200 OA
BRANCH  11  14
ATOM     14  N24 9FK d          -5.540  -0.417  16.237  0.00  0.00    -0.324 N 
ATOM     15  H   9FK d          -5.868  -0.659  15.324  0.00  0.00     0.169 HD
ATOM     16  H   9FK d          -4.849  -0.983  16.687  0.00  0.00     0.169 HD
ENDBRANCH  11  14
ENDBRANCH   8  11
ENDBRANCH   1   6
BRANCH   3  17
ATOM     17  C10 9FK d          -0.973   6.874  13.138  0.00  0.00     0.065 C 
ATOM     18  C9  9FK d          -0.318   6.334  12.069  0.00  0.00     0.032 C 
ATOM     19  C8  9FK d           0.929   6.731  11.618  0.00  0.00     0.003 C 
ATOM     20  C7  9FK d           1.565   7.839  12.188  0.00  0.00     0.012 C 
ATOM     21  C4  9FK d           0.893   8.541  13.192  0.00  0.00    -0.024 A 
ATOM     22  C3  9FK d          -0.374   8.078  13.748  0.00  0.00     0.003 A 
ATOM     23  C5  9FK d           1.472   9.646  13.768  0.00  0.00     0.012 A 
ATOM     24  C2  9FK d          -0.976   8.766  14.793  0.00  0.00     0.014 A 
ATOM     25  C1  9FK d          -0.356   9.888  15.325  0.00  0.00     0.001 A 
ATOM     26  C6  9FK d           0.879  10.311  14.839  0.00  0.00     0.001 A 
ENDBRANCH   3  17
TORSDOF 4
