### 
### Created by X-TOOL on Sun Nov 13 14:27:56 2016
### 

@<TRIPOS>MOLECULE
5btx_ligand
   33    36     1     0     0
SMALL
GAST_HUCK


@<TRIPOS>ATOM
      1 P          31.1000   19.0970   47.1380 P.3       1 CMP         0.2557
      2 O1P        31.7970   19.4400   45.8470 O.co2     1 CMP        -0.6177
      3 O2P        31.5100   19.8150   48.4170 O.co2     1 CMP        -0.6177
      4 O5'        31.1850   17.5190   47.4010 O.3       1 CMP        -0.2514
      5 C5'        30.2360   16.8940   48.2860 C.3       1 CMP         0.1128
      6 C4'        28.8490   17.2500   47.7740 C.3       1 CMP         0.1242
      7 O4'        27.7330   16.8060   48.5340 O.3       1 CMP        -0.3360
      8 C3'        28.6210   18.7500   47.7640 C.3       1 CMP         0.1540
      9 O3'        29.5400   19.3780   46.8740 O.3       1 CMP        -0.2453
     10 C2'        27.1400   18.8420   47.4670 C.3       1 CMP         0.1439
     11 O2'        26.8170   18.4810   46.1240 O.3       1 CMP        -0.3832
     12 C1'        26.6400   17.6980   48.3210 C.3       1 CMP         0.2014
     13 N9         26.1340   18.2890   49.5710 N.pl3     1 CMP        -0.1919
     14 C8         26.7620   18.2630   50.7900 C.2       1 CMP         0.1123
     15 N7         26.0290   18.9100   51.7020 N.2       1 CMP        -0.2958
     16 C5         24.9170   19.3920   51.0580 C.ar      1 CMP         0.1045
     17 C6         23.7230   20.1680   51.4440 C.ar      1 CMP         0.1298
     18 N6         23.5300   20.6200   52.7420 N.pl3     1 CMP        -0.3152
     19 N1         22.8220   20.4130   50.4680 N.ar      1 CMP        -0.2698
     20 C2         22.9610   20.0000   49.1970 C.ar      1 CMP         0.0533
     21 N3         24.0280   19.3000   48.7840 N.ar      1 CMP        -0.2714
     22 C4         25.0100   18.9790   49.6560 C.ar      1 CMP         0.1613
     23 H1         30.3690   17.2721   49.3104 H         1 CMP         0.0647
     24 H2         30.3732   15.8026   48.2772 H         1 CMP         0.0647
     25 H3         28.7699   16.8469   46.7536 H         1 CMP         0.0655
     26 H4         28.8030   19.1710   48.7638 H         1 CMP         0.0712
     27 H5         26.7165   19.8218   47.7328 H         1 CMP         0.0680
     28 H6         27.2690   19.0622   45.5236 H         1 CMP         0.2101
     29 H7         25.8257   17.1621   47.8114 H         1 CMP         0.0996
     30 H8         27.7201   17.7842   50.9868 H         1 CMP         0.1349
     31 H9         22.6853   21.1595   52.9792 H         1 CMP         0.1820
     32 H10        24.2315   20.4159   53.4681 H         1 CMP         0.1820
     33 H11        22.1839   20.2409   48.4806 H         1 CMP         0.0996
@<TRIPOS>BOND
     1    1    2 ar 
     2    1    3 ar 
     3    1    4 1  
     4    1    9 1  
     5    4    5 1  
     6    5    6 1  
     7    6    7 1  
     8    6    8 1  
     9    7   12 1  
    10    8    9 1  
    11    8   10 1  
    12   10   11 1  
    13   10   12 1  
    14   12   13 1  
    15   13   14 1  
    16   13   22 1  
    17   14   15 2  
    18   15   16 1  
    19   16   17 ar 
    20   16   22 ar 
    21   17   18 1  
    22   17   19 ar 
    23   19   20 ar 
    24   20   21 ar 
    25   21   22 ar 
    26    5   23 1  
    27    5   24 1  
    28    6   25 1  
    29    8   26 1  
    30   10   27 1  
    31   11   28 1  
    32   12   29 1  
    33   14   30 1  
    34   18   31 1  
    35   18   32 1  
    36   20   33 1  
@<TRIPOS>SUBSTRUCTURE
     1 CMP         1

