### 
### Created by X-TOOL on Fri Sep 26 17:34:49 2014
### 

@<TRIPOS>MOLECULE
3o4k_ligand
  127   128     1     0     0
SMALL
GAST_HUCK


@<TRIPOS>ATOM
      1 C1         18.4590   20.5470  -22.3260 C.3       1 LTC         0.1130
      2 O1         17.3060   21.3000  -22.8090 O.3       1 LTC        -0.3405
      3 C2         18.7570   20.7730  -20.8190 C.3       1 LTC         0.1123
      4 O2         18.0680   21.7030  -18.6830 O.3       1 LTC        -0.3403
      5 C3         17.7460   21.7110  -20.1050 C.3       1 LTC         0.1206
      6 O3         15.2870   22.1930  -19.9460 O.3       1 LTC        -0.3841
      7 C4         16.2960   21.3290  -20.5090 C.3       1 LTC         0.1345
      8 O4         20.1410   21.1500  -20.5880 O.3       1 LTC        -0.3865
      9 C5         16.0690   21.2370  -22.0390 C.3       1 LTC         0.1880
     10 O5         16.9400   18.6700  -22.4030 O.3       1 LTC        -0.3924
     11 C7         18.3070   19.0540  -22.6210 C.3       1 LTC         0.0730
     12 O9         12.7010   19.9120  -26.1390 O.2       1 LTC        -0.3704
     13 O10        13.9630   21.3660  -24.7510 O.3       1 LTC        -0.2685
     14 C11        24.2320   18.7850  -25.4690 C.3       1 LTC        -0.0653
     15 O11        15.0930   22.2060  -22.5120 O.3       1 LTC        -0.3457
     16 C12        23.0770   17.8850  -25.9110 C.3       1 LTC        -0.0559
     17 O12        10.6000   21.4630  -24.2460 O.3       1 LTC        -0.2738
     18 C13        21.9220   17.8310  -24.8990 C.3       1 LTC        -0.0533
     19 O13        10.3790   21.4290  -26.6080 O.2       1 LTC        -0.3704
     20 C14        20.7180   17.0050  -25.3760 C.3       1 LTC        -0.0531
     21 C15        20.8360   15.4830  -25.1450 C.3       1 LTC        -0.0531
     22 C16        19.4690   14.8000  -24.9340 C.3       1 LTC        -0.0531
     23 C17        18.7370   14.2960  -26.1980 C.3       1 LTC        -0.0531
     24 C18        17.1980   14.3830  -26.2180 C.3       1 LTC        -0.0531
     25 C19        16.5740   14.9930  -24.9780 C.3       1 LTC        -0.0531
     26 C20        15.1950   15.6450  -25.0800 C.3       1 LTC        -0.0531
     27 C21        15.2530   16.9600  -25.8720 C.3       1 LTC        -0.0529
     28 C22        15.4690   18.2130  -25.0260 C.3       1 LTC        -0.0509
     29 C23        16.0630   19.3480  -25.8610 C.3       1 LTC        -0.0348
     30 C24        15.0000   20.0280  -26.7300 C.3       1 LTC         0.0487
     31 C25        13.7960   20.4030  -25.8750 C.2       1 LTC         0.2341
     32 C26        13.0000   21.4130  -23.6780 C.3       1 LTC         0.1384
     33 C27        13.6880   21.8860  -22.3810 C.3       1 LTC         0.0839
     34 C28        11.7870   22.2700  -24.0630 C.3       1 LTC         0.1095
     35 C29         9.8130   21.3620  -25.5040 C.2       1 LTC         0.2338
     36 C30         8.2980   21.1640  -25.4100 C.3       1 LTC         0.0487
     37 C31         7.6480   21.0560  -26.7890 C.3       1 LTC        -0.0348
     38 C32         6.1960   21.5370  -26.8100 C.3       1 LTC        -0.0509
     39 C33         6.0350   22.7520  -27.7350 C.3       1 LTC        -0.0532
     40 C34         5.4000   22.4460  -29.0940 C.3       1 LTC        -0.0559
     41 C35         6.0320   23.2380  -30.2290 C.3       1 LTC        -0.0653
     42 C41        15.4610   20.6520  -16.3610 C.3       1 LTC         0.1037
     43 O41        16.2930   20.7430  -17.5290 O.3       1 LTC        -0.3403
     44 C42        15.4700   21.9180  -15.5080 C.3       1 LTC         0.0311
     45 N42        14.4710   21.8190  -14.4530 N.4       1 LTC         0.2245
     46 O42        13.9170   23.4200  -16.6570 O.3       1 LTC        -0.3836
     47 C43        15.3140   23.2060  -16.3430 C.3       1 LTC         0.1273
     48 C44        16.2530   23.2530  -17.5800 C.3       1 LTC         0.1238
     49 N44        17.0500   24.5100  -17.6640 N.am      1 LTC        -0.2765
     50 C45        17.1040   21.9220  -17.6190 C.3       1 LTC         0.1856
     51 C47        13.9730   20.3270  -16.5120 C.3       1 LTC        -0.0332
     52 C48        16.7210   25.8470  -17.6670 C.2       1 LTC         0.1734
     53 O48        15.6050   26.3590  -17.6800 O.2       1 LTC        -0.3974
     54 C49        17.8660   26.8250  -17.4750 C.3       1 LTC         0.0257
     55 H1         19.3344   20.9077  -22.8860 H         1 LTC         0.0647
     56 H2         18.6305   19.7899  -20.3420 H         1 LTC         0.0647
     57 H3         17.9100   22.7375  -20.4647 H         1 LTC         0.0651
     58 H4         15.3345   22.1575  -18.9978 H         1 LTC         0.2101
     59 H5         16.1235   20.3232  -20.0984 H         1 LTC         0.0671
     60 H6         20.3253   21.1187  -19.6566 H         1 LTC         0.2100
     61 H7         15.6382   20.2423  -22.2262 H         1 LTC         0.0937
     62 H8         16.3757   19.1701  -22.9810 H         1 LTC         0.2095
     63 H9         18.9629   18.4774  -21.9522 H         1 LTC         0.0584
     64 H10        18.5835   18.8549  -23.6669 H         1 LTC         0.0584
     65 H11        25.0189   18.7757  -26.2376 H         1 LTC         0.0230
     66 H12        24.6433   18.4137  -24.5188 H         1 LTC         0.0230
     67 H13        23.8646   19.8128  -25.3328 H         1 LTC         0.0230
     68 H14        23.4643   16.8652  -26.0524 H         1 LTC         0.0263
     69 H15        22.6856   18.2643  -26.8664 H         1 LTC         0.0263
     70 H16        21.5823   18.8591  -24.7052 H         1 LTC         0.0265
     71 H17        22.2990   17.3873  -23.9657 H         1 LTC         0.0265
     72 H18        20.5924   17.1772  -26.4551 H         1 LTC         0.0265
     73 H19        19.8258   17.3627  -24.8413 H         1 LTC         0.0265
     74 H20        21.4559   15.3104  -24.2529 H         1 LTC         0.0265
     75 H21        21.3222   15.0315  -26.0223 H         1 LTC         0.0265
     76 H22        18.8090   15.5245  -24.4345 H         1 LTC         0.0265
     77 H23        19.6284   13.9340  -24.2748 H         1 LTC         0.0265
     78 H24        19.0079   13.2387  -26.3348 H         1 LTC         0.0265
     79 H25        19.1102   14.8834  -27.0499 H         1 LTC         0.0265
     80 H26        16.8002   13.3641  -26.3340 H         1 LTC         0.0265
     81 H27        16.9020   14.9931  -27.0841 H         1 LTC         0.0265
     82 H28        17.2684   15.7653  -24.6156 H         1 LTC         0.0265
     83 H29        16.4953   14.1904  -24.2299 H         1 LTC         0.0265
     84 H30        14.8223   15.8541  -24.0664 H         1 LTC         0.0265
     85 H31        14.5082   14.9518  -25.5876 H         1 LTC         0.0265
     86 H32        14.3029   17.0740  -26.4145 H         1 LTC         0.0265
     87 H33        16.0806   16.8881  -26.5930 H         1 LTC         0.0265
     88 H34        16.1578   17.9753  -24.2020 H         1 LTC         0.0267
     89 H35        14.5026   18.5387  -24.6137 H         1 LTC         0.0267
     90 H36        16.8478   18.9377  -26.5135 H         1 LTC         0.0291
     91 H37        16.5024   20.0960  -25.1847 H         1 LTC         0.0291
     92 H38        14.6822   19.3376  -27.5251 H         1 LTC         0.0518
     93 H39        15.4243   20.9369  -27.1815 H         1 LTC         0.0518
     94 H40        12.6352   20.3898  -23.5053 H         1 LTC         0.0700
     95 H41        13.1651   22.7867  -22.0271 H         1 LTC         0.0591
     96 H42        13.5892   21.0865  -21.6320 H         1 LTC         0.0591
     97 H43        11.6004   23.0032  -23.2645 H         1 LTC         0.0644
     98 H44        12.0073   22.7986  -25.0021 H         1 LTC         0.0644
     99 H45         7.8602   22.0210  -24.8772 H         1 LTC         0.0518
    100 H46         8.0947   20.2403  -24.8483 H         1 LTC         0.0518
    101 H47         7.6720   20.0027  -27.1053 H         1 LTC         0.0291
    102 H48         8.2283   21.6650  -27.4977 H         1 LTC         0.0291
    103 H49         5.8949   21.8184  -25.7901 H         1 LTC         0.0267
    104 H50         5.5516   20.7218  -27.1708 H         1 LTC         0.0267
    105 H51         7.0321   23.1813  -27.9124 H         1 LTC         0.0265
    106 H52         5.4034   23.4917  -27.2212 H         1 LTC         0.0265
    107 H53         4.3293   22.6934  -29.0459 H         1 LTC         0.0263
    108 H54         5.5193   21.3730  -29.3046 H         1 LTC         0.0263
    109 H55         5.5378   22.9784  -31.1768 H         1 LTC         0.0230
    110 H56         7.1025   22.9939  -30.2948 H         1 LTC         0.0230
    111 H57         5.9125   24.3143  -30.0361 H         1 LTC         0.0230
    112 H58        15.9015   19.8392  -15.7649 H         1 LTC         0.0652
    113 H59        16.4547   21.9739  -15.0210 H         1 LTC         0.0902
    114 H60        14.4856   22.6593  -13.8965 H         1 LTC         0.1999
    115 H61        14.6779   21.0248  -13.8677 H         1 LTC         0.1999
    116 H62        13.5580   21.7044  -14.8645 H         1 LTC         0.1999
    117 H63        13.8271   24.2139  -17.1709 H         1 LTC         0.2101
    118 H64        15.6228   24.0415  -15.6976 H         1 LTC         0.0676
    119 H65        15.6110   23.2442  -18.4731 H         1 LTC         0.0634
    120 H66        18.0343   24.3474  -17.7329 H         1 LTC         0.1857
    121 H67        17.7019   21.9614  -16.6965 H         1 LTC         0.0935
    122 H68        13.5011   20.2994  -15.5187 H         1 LTC         0.0257
    123 H69        13.8592   19.3474  -16.9993 H         1 LTC         0.0257
    124 H70        13.4892   21.1006  -17.1263 H         1 LTC         0.0257
    125 H71        17.4770   27.8537  -17.4963 H         1 LTC         0.0467
    126 H72        18.5999   26.6937  -18.2838 H         1 LTC         0.0467
    127 H73        18.3507   26.6364  -16.5058 H         1 LTC         0.0467
@<TRIPOS>BOND
     1    1    2 1  
     2    3    1 1  
     3    1   11 1  
     4    9    2 1  
     5    5    3 1  
     6    3    8 1  
     7    4    5 1  
     8   50    4 1  
     9    5    7 1  
    10    7    6 1  
    11    7    9 1  
    12    9   15 1  
    13   11   10 1  
    14   31   12 2  
    15   13   31 1  
    16   32   13 1  
    17   16   14 1  
    18   15   33 1  
    19   18   16 1  
    20   34   17 1  
    21   17   35 1  
    22   20   18 1  
    23   35   19 2  
    24   21   20 1  
    25   22   21 1  
    26   23   22 1  
    27   24   23 1  
    28   25   24 1  
    29   26   25 1  
    30   27   26 1  
    31   28   27 1  
    32   29   28 1  
    33   30   29 1  
    34   31   30 1  
    35   33   32 1  
    36   32   34 1  
    37   35   36 1  
    38   36   37 1  
    39   37   38 1  
    40   38   39 1  
    41   39   40 1  
    42   40   41 1  
    43   43   42 1  
    44   42   44 1  
    45   42   51 1  
    46   43   50 1  
    47   44   45 1  
    48   44   47 1  
    49   47   46 1  
    50   47   48 1  
    51   48   49 1  
    52   48   50 1  
    53   49   52 am 
    54   52   53 2  
    55   52   54 1  
    56    1   55 1  
    57    3   56 1  
    58    5   57 1  
    59    6   58 1  
    60    7   59 1  
    61    8   60 1  
    62    9   61 1  
    63   10   62 1  
    64   11   63 1  
    65   11   64 1  
    66   14   65 1  
    67   14   66 1  
    68   14   67 1  
    69   16   68 1  
    70   16   69 1  
    71   18   70 1  
    72   18   71 1  
    73   20   72 1  
    74   20   73 1  
    75   21   74 1  
    76   21   75 1  
    77   22   76 1  
    78   22   77 1  
    79   23   78 1  
    80   23   79 1  
    81   24   80 1  
    82   24   81 1  
    83   25   82 1  
    84   25   83 1  
    85   26   84 1  
    86   26   85 1  
    87   27   86 1  
    88   27   87 1  
    89   28   88 1  
    90   28   89 1  
    91   29   90 1  
    92   29   91 1  
    93   30   92 1  
    94   30   93 1  
    95   32   94 1  
    96   33   95 1  
    97   33   96 1  
    98   34   97 1  
    99   34   98 1  
   100   36   99 1  
   101   36  100 1  
   102   37  101 1  
   103   37  102 1  
   104   38  103 1  
   105   38  104 1  
   106   39  105 1  
   107   39  106 1  
   108   40  107 1  
   109   40  108 1  
   110   41  109 1  
   111   41  110 1  
   112   41  111 1  
   113   42  112 1  
   114   44  113 1  
   115   45  114 1  
   116   45  115 1  
   117   45  116 1  
   118   46  117 1  
   119   47  118 1  
   120   48  119 1  
   121   49  120 1  
   122   50  121 1  
   123   51  122 1  
   124   51  123 1  
   125   51  124 1  
   126   54  125 1  
   127   54  126 1  
   128   54  127 1  
@<TRIPOS>SUBSTRUCTURE
     1 LTC         1

