### 
### Created by X-TOOL on Fri Sep 26 17:34:46 2014
### 

@<TRIPOS>MOLECULE
3hu3_ligand
   44    46     1     0     0
SMALL
GAST_HUCK


@<TRIPOS>ATOM
      1 PG         18.1600   52.9450  -12.0610 P.3       1 ATG         0.2197
      2 O1G        18.9030   54.0020  -12.8750 O.co2     1 ATG        -0.6077
      3 O2G        17.8770   53.3440  -10.6300 O.co2     1 ATG        -0.6077
      4 S3G        16.2960   52.4140  -12.8180 S.3       1 ATG        -0.0461
      5 PB         20.4530   51.1770  -11.5060 P.3       1 ATG         0.3347
      6 O1B        20.5460   51.7930  -10.1560 O.co2     1 ATG        -0.6076
      7 O2B        21.4500   51.3230  -12.6080 O.co2     1 ATG        -0.6076
      8 O3B        18.9960   51.5670  -12.1330 O.3       1 ATG        -0.1434
      9 PA         20.4810   48.7320  -10.0390 P.3       1 ATG         0.2978
     10 O1A        21.9230   48.9850   -9.7220 O.co2     1 ATG        -0.6127
     11 O2A        19.3820   49.1120   -9.0830 O.co2     1 ATG        -0.6127
     12 O3A        20.1350   49.5980  -11.3480 O.3       1 ATG        -0.1263
     13 O5'        20.3070   47.2640  -10.7010 O.3       1 ATG        -0.2476
     14 C5'        19.1300   46.4650  -10.5460 C.3       1 ATG         0.1128
     15 C4'        19.5690   45.0010  -10.4110 C.3       1 ATG         0.1189
     16 O4'        20.0870   44.5150  -11.6660 O.3       1 ATG        -0.3364
     17 C3'        20.7230   44.8520   -9.4300 C.3       1 ATG         0.1149
     18 O3'        20.3310   44.7990   -8.0460 O.3       1 ATG        -0.3864
     19 C2'        21.4530   43.6300   -9.9180 C.3       1 ATG         0.1385
     20 O2'        20.7260   42.4710   -9.4840 O.3       1 ATG        -0.3836
     21 C1'        21.3070   43.7620  -11.4440 C.3       1 ATG         0.2010
     22 N9         22.4900   44.4450  -12.0220 N.pl3     1 ATG        -0.1919
     23 C8         22.4570   45.6450  -12.6100 C.2       1 ATG         0.1123
     24 N7         23.6820   46.0340  -13.0340 N.2       1 ATG        -0.2958
     25 C5         24.5540   45.0630  -12.7170 C.ar      1 ATG         0.1045
     26 C6         26.0120   44.8480  -12.8820 C.ar      1 ATG         0.1298
     27 N6         26.7970   45.7650  -13.5030 N.pl3     1 ATG        -0.3152
     28 N1         26.5420   43.6990  -12.4070 N.ar      1 ATG        -0.2698
     29 C2         25.7820   42.7760  -11.7990 C.ar      1 ATG         0.0533
     30 N3         24.4610   42.9120  -11.6310 N.ar      1 ATG        -0.2714
     31 C4         23.7790   44.0130  -12.0550 C.ar      1 ATG         0.1613
     32 H1         16.3938   52.1309  -13.7805 H         1 ATG         0.1255
     33 H2         18.4808   46.5809  -11.4264 H         1 ATG         0.0648
     34 H3         18.5832   46.7760   -9.6437 H         1 ATG         0.0648
     35 H4         18.7110   44.3941  -10.0862 H         1 ATG         0.0651
     36 H5         21.3868   45.7229   -9.5343 H         1 ATG         0.0648
     37 H6         19.7553   44.0558   -7.9093 H         1 ATG         0.2100
     38 H7         22.5024   43.5965   -9.5900 H         1 ATG         0.0676
     39 H8         20.6773   42.4660   -8.5353 H         1 ATG         0.2101
     40 H9         21.2153   42.7652  -11.9000 H         1 ATG         0.0996
     41 H10        21.5524   46.2387  -12.7332 H         1 ATG         0.1349
     42 H11        27.8074   45.5930  -13.6055 H         1 ATG         0.1820
     43 H12        26.3823   46.6327  -13.8717 H         1 ATG         0.1820
     44 H13        26.2602   41.8775  -11.4261 H         1 ATG         0.0996
@<TRIPOS>BOND
     1    1    2 ar 
     2    1    3 ar 
     3    1    4 1  
     4    8    1 1  
     5    5    6 ar 
     6    5    7 ar 
     7    5    8 1  
     8   12    5 1  
     9    9   10 ar 
    10    9   11 ar 
    11    9   12 1  
    12    9   13 1  
    13   13   14 1  
    14   14   15 1  
    15   15   16 1  
    16   15   17 1  
    17   16   21 1  
    18   17   18 1  
    19   17   19 1  
    20   19   20 1  
    21   19   21 1  
    22   21   22 1  
    23   22   23 1  
    24   22   31 1  
    25   23   24 2  
    26   24   25 1  
    27   25   26 ar 
    28   25   31 ar 
    29   26   27 1  
    30   26   28 ar 
    31   28   29 ar 
    32   29   30 ar 
    33   30   31 ar 
    34    4   32 1  
    35   14   33 1  
    36   14   34 1  
    37   15   35 1  
    38   17   36 1  
    39   18   37 1  
    40   19   38 1  
    41   20   39 1  
    42   21   40 1  
    43   23   41 1  
    44   27   42 1  
    45   27   43 1  
    46   29   44 1  
@<TRIPOS>SUBSTRUCTURE
     1 ATG         1

