### 
### Created by X-TOOL on Fri Sep 26 17:34:56 2014
### 

@<TRIPOS>MOLECULE
4emr_ligand
   49    51     1     0     0
SMALL
GAST_HUCK


@<TRIPOS>ATOM
      1 PA        -15.5330  -16.1350   -5.0460 P.3       1 MGP         0.3266
      2 O1A       -15.4690  -17.6200   -4.7220 O.co2     1 MGP        -0.5692
      3 O2A       -14.8290  -15.0580   -4.3620 O.co2     1 MGP        -0.5692
      4 O3A       -17.0570  -15.6620   -5.0840 O.3       1 MGP        -0.1171
      5 O5'       -15.0760  -15.8790   -6.5540 O.3       1 MGP        -0.2441
      6 PB        -18.0860  -15.3040   -3.9230 P.3       1 MGP         0.3553
      7 O1B       -17.5510  -15.2160   -2.5060 O.co2     1 MGP        -0.5652
      8 O2B       -18.7950  -14.0690   -4.4180 O.co2     1 MGP        -0.5652
      9 O3B       -18.9640  -16.6540   -3.9980 O.3       1 MGP        -0.1546
     10 PC        -20.5000  -16.9010   -4.5510 P.3       1 MGP         0.1879
     11 O1C       -20.6030  -18.3800   -4.2180 O.co2     1 MGP        -0.6091
     12 O2C       -20.4230  -16.7570   -6.0790 O.co2     1 MGP        -0.6091
     13 O3C       -21.6160  -16.1230   -3.7680 O.co2     1 MGP        -0.6091
     14 C5'       -15.3230  -14.6970   -7.4000 C.3       1 MGP         0.1130
     15 C4'       -16.1700  -14.8600   -8.6490 C.3       1 MGP         0.1169
     16 O4'       -15.8090  -16.0990   -9.3170 O.3       1 MGP        -0.3529
     17 C3'       -17.6740  -14.8040   -8.2940 C.3       1 MGP         0.1129
     18 O3'       -18.4940  -14.3670   -9.4330 O.3       1 MGP        -0.3865
     19 C2'       -17.9630  -16.2550   -8.0890 C.3       1 MGP         0.1208
     20 O2'       -19.3470  -16.5730   -8.3570 O.3       1 MGP        -0.3857
     21 C1'       -16.9960  -16.8840   -9.0870 C.3       1 MGP         0.1656
     22 N9        -16.3930  -18.0950   -8.5170 N.2       1 MGP        -0.1577
     23 C8        -16.6260  -18.7650   -7.3800 C.2       1 MGP         0.2318
     24 N7        -15.7650  -19.8260   -7.2980 N.pl3     1 MGP        -0.0547
     25 CM7       -15.7540  -20.7990   -6.1450 C.3       1 MGP         0.0996
     26 C5        -14.9900  -19.7500   -8.4000 C.2       1 MGP         0.4523
     27 C6        -13.9170  -20.5760   -8.9370 C.2       1 MGP         0.4098
     28 O6        -13.5400  -21.5660   -8.2890 O.2       1 MGP        -0.2762
     29 N1        -13.3780  -20.2250  -10.1240 N.am      1 MGP        -0.2152
     30 C2        -13.8000  -19.1300  -10.8500 C.cat     1 MGP         0.2333
     31 N2        -13.2090  -18.8580  -12.0240 N.pl3     1 MGP        -0.3251
     32 N3        -14.8190  -18.3420  -10.4320 N.pl3     1 MGP        -0.1473
     33 C4        -15.4060  -18.6190   -9.2140 C.2       1 MGP         0.4104
     34 H1        -14.3417  -14.3178   -7.7213 H         1 MGP         0.0648
     35 H2        -15.8182  -13.9445   -6.7687 H         1 MGP         0.0648
     36 H3        -15.9511  -14.0255   -9.3314 H         1 MGP         0.0650
     37 H4        -17.8707  -14.1881   -7.4041 H         1 MGP         0.0647
     38 H5        -19.4078  -14.3461   -9.1743 H         1 MGP         0.2100
     39 H6        -17.7224  -16.5660   -7.0617 H         1 MGP         0.0655
     40 H7        -19.9045  -16.0730   -7.7726 H         1 MGP         0.2100
     41 H8        -17.5272  -17.0907  -10.0278 H         1 MGP         0.0758
     42 H9        -17.3807  -18.5063   -6.6388 H         1 MGP         0.2243
     43 H10       -16.5473  -20.5311   -5.4316 H         1 MGP         0.0658
     44 H11       -14.7777  -20.7581   -5.6399 H         1 MGP         0.0658
     45 H12       -15.9291  -21.8172   -6.5227 H         1 MGP         0.0658
     46 H13       -12.6375  -20.7854  -10.4949 H         1 MGP         0.1858
     47 H14       -13.5130  -18.0442  -12.5773 H         1 MGP         0.1812
     48 H15       -12.4514  -19.4631  -12.3716 H         1 MGP         0.1812
     49 H16       -15.1480  -17.5549  -11.0092 H         1 MGP         0.2869
@<TRIPOS>BOND
     1    1    2 ar 
     2    1    3 ar 
     3    1    4 1  
     4    1    5 1  
     5    4    6 1  
     6    5   14 1  
     7    6    7 ar 
     8    6    8 ar 
     9    6    9 1  
    10    9   10 1  
    11   10   11 ar 
    12   10   12 ar 
    13   10   13 ar 
    14   14   15 1  
    15   15   16 1  
    16   15   17 1  
    17   16   21 1  
    18   17   18 1  
    19   17   19 1  
    20   19   20 1  
    21   19   21 1  
    22   21   22 1  
    23   22   23 2  
    24   22   33 1  
    25   23   24 1  
    26   24   25 1  
    27   24   26 1  
    28   26   27 1  
    29   26   33 2  
    30   27   28 2  
    31   27   29 am 
    32   29   30 ar 
    33   30   31 ar 
    34   30   32 ar 
    35   32   33 1  
    36   14   34 1  
    37   14   35 1  
    38   15   36 1  
    39   17   37 1  
    40   18   38 1  
    41   19   39 1  
    42   20   40 1  
    43   21   41 1  
    44   23   42 1  
    45   25   43 1  
    46   25   44 1  
    47   25   45 1  
    48   29   46 1  
    49   31   47 1  
    50   31   48 1  
    51   32   49 1  
@<TRIPOS>SUBSTRUCTURE
     1 MGP         1

