### 
### Created by X-TOOL on Fri Sep 26 17:34:30 2014
### 

@<TRIPOS>MOLECULE
1wuq_ligand
   45    47     1     0     0
SMALL
GAST_HUCK


@<TRIPOS>ATOM
      1 PG        -29.3670  -16.5930    1.3870 P.3       1 MOL         0.1879
      2 O1G       -29.9320  -16.5280   -0.0030 O.co2     1 MOL        -0.6091
      3 O2G       -29.6650  -15.3580    2.1910 O.co2     1 MOL        -0.6091
      4 O3G       -27.8610  -16.8070    1.3080 O.co2     1 MOL        -0.6091
      5 O3B       -30.0460  -17.8300    2.1590 O.3       1 MOL        -0.1546
      6 PB        -30.7920  -19.1420    1.5700 P.3       1 MOL         0.3553
      7 O1B       -29.9290  -19.8200    0.5830 O.co2     1 MOL        -0.5652
      8 O2B       -32.1090  -18.7760    1.0180 O.co2     1 MOL        -0.5652
      9 O3A       -30.9650  -20.0790    2.8380 O.3       1 MOL        -0.1171
     10 PA        -31.5070  -19.8760    4.3520 P.3       1 MOL         0.3266
     11 O1A       -31.8460  -21.2250    4.8950 O.co2     1 MOL        -0.5692
     12 O2A       -32.6320  -18.8910    4.3110 O.co2     1 MOL        -0.5692
     13 N9        -24.5370  -19.2800    6.6830 N.2       1 MOL        -0.0154
     14 C8        -23.7640  -19.9790    5.7810 C.2       1 MOL         0.5725
     15 N7        -22.5720  -20.2770    6.2500 N.2       1 MOL         0.0512
     16 C5        -22.5750  -19.7390    7.5370 C.2       1 MOL         0.4272
     17 C6        -21.5700  -19.7220    8.5460 C.2       1 MOL         0.3217
     18 O6        -20.4290  -20.1840    8.5230 O.2       1 MOL        -0.3369
     19 N1        -22.0110  -19.0650    9.7090 N.am      1 MOL        -0.2324
     20 C2        -23.2690  -18.5000    9.8520 C.cat     1 MOL         0.2349
     21 N2        -23.5220  -17.9170   11.0290 N.pl3     1 MOL        -0.3238
     22 N3        -24.1900  -18.5070    8.9200 N.pl3     1 MOL        -0.1379
     23 C4        -23.7840  -19.1380    7.7960 C.2       1 MOL         0.4729
     24 O8        -24.2060  -20.2540    4.6700 O.2       1 MOL        -0.2165
     25 O5'       -30.2230  -19.2560    5.0610 O.3       1 MOL        -0.2441
     26 C5'       -29.0590  -20.0250    5.3960 C.3       1 MOL         0.1132
     27 C4'       -28.0950  -19.1190    6.1150 C.3       1 MOL         0.1208
     28 O4'       -26.8490  -19.7980    6.5070 O.3       1 MOL        -0.3195
     29 C3'       -27.6400  -17.8860    5.2870 C.3       1 MOL         0.1171
     30 O3'       -28.0620  -16.6830    5.9370 O.3       1 MOL        -0.3863
     31 C2'       -26.1510  -18.0740    5.2390 C.3       1 MOL         0.1597
     32 O2'       -25.4680  -16.8210    5.1850 O.3       1 MOL        -0.3814
     33 C1'       -25.8950  -18.7610    6.5100 C.3       1 MOL         0.2840
     34 H1        -21.3779  -19.0015   10.4805 H         1 MOL         0.1865
     35 H2        -24.4380  -17.4782   11.2000 H         1 MOL         0.1831
     36 H3        -22.8008  -17.9068   11.7643 H         1 MOL         0.1831
     37 H4        -25.1202  -18.0791    9.0317 H         1 MOL         0.2879
     38 H5        -28.5923  -20.4147    4.4793 H         1 MOL         0.0648
     39 H6        -29.3409  -20.8640    6.0492 H         1 MOL         0.0648
     40 H7        -28.6046  -18.7623    7.0222 H         1 MOL         0.0652
     41 H8        -28.0617  -17.9083    4.2713 H         1 MOL         0.0649
     42 H9        -27.7809  -15.9330    5.4261 H         1 MOL         0.2100
     43 H10       -25.8525  -18.6930    4.3801 H         1 MOL         0.0699
     44 H11       -25.6829  -16.3109    5.9571 H         1 MOL         0.2102
     45 H12       -26.0940  -18.0689    7.3415 H         1 MOL         0.1270
@<TRIPOS>BOND
     1    1    2 ar 
     2    1    3 ar 
     3    1    4 ar 
     4    5    1 1  
     5    6    5 1  
     6    6    7 ar 
     7    6    8 ar 
     8    9    6 1  
     9   10    9 1  
    10   10   11 ar 
    11   10   12 ar 
    12   25   10 1  
    13   13   14 1  
    14   13   23 2  
    15   33   13 1  
    16   14   15 1  
    17   14   24 2  
    18   16   15 2  
    19   16   17 1  
    20   23   16 1  
    21   17   18 2  
    22   17   19 am 
    23   20   19 ar 
    24   20   21 ar 
    25   22   20 ar 
    26   23   22 1  
    27   26   25 1  
    28   27   26 1  
    29   28   27 1  
    30   27   29 1  
    31   28   33 1  
    32   29   30 1  
    33   29   31 1  
    34   31   32 1  
    35   31   33 1  
    36   19   34 1  
    37   21   35 1  
    38   21   36 1  
    39   22   37 1  
    40   26   38 1  
    41   26   39 1  
    42   27   40 1  
    43   29   41 1  
    44   30   42 1  
    45   31   43 1  
    46   32   44 1  
    47   33   45 1  
@<TRIPOS>SUBSTRUCTURE
     1 MOL         1

