### 
### Created by X-TOOL on Fri Sep 26 17:34:18 2014
### 

@<TRIPOS>MOLECULE
1iih_ligand
   15    14     1     0     0
SMALL
GAST_HUCK


@<TRIPOS>ATOM
      1 C1         46.4510   15.2650   -8.7440 C.2       1 MOL         0.0659
      2 O1         47.3220   15.8050   -8.0570 O.co2     1 MOL        -0.5663
      3 O2         45.2700   15.2200   -8.4480 O.co2     1 MOL        -0.5663
      4 C2         46.8730   14.6890  -10.0830 C.3       1 MOL         0.1348
      5 O3         47.2570   13.3250  -10.0540 O.3       1 MOL        -0.3751
      6 C3         48.0670   15.5450  -10.4800 C.3       1 MOL         0.1159
      7 O1P        47.6780   16.7860  -11.1160 O.3       1 MOL        -0.2718
      8 P          47.7670   16.9710  -12.7130 P.3       1 MOL         0.2009
      9 O2P        49.2390   16.7440  -12.9640 O.co2     1 MOL        -0.5537
     10 O3P        46.8860   15.8500  -13.2130 O.co2     1 MOL        -0.5537
     11 O4P        47.3480   18.3830  -12.9890 O.co2     1 MOL        -0.5537
     12 H1         46.0538   14.8041  -10.8080 H         1 MOL         0.0790
     13 H2         46.5105   12.7922   -9.8060 H         1 MOL         0.2125
     14 H3         48.6935   14.9723  -11.1797 H         1 MOL         0.0657
     15 H4         48.6477   15.7800   -9.5758 H         1 MOL         0.0657
@<TRIPOS>BOND
     1    1    4 1  
     2    1    3 ar 
     3    1    2 ar 
     4    4    6 1  
     5    4    5 1  
     6    6    7 1  
     7    7    8 1  
     8    8   11 ar 
     9    8   10 ar 
    10    8    9 ar 
    11    4   12 1  
    12    5   13 1  
    13    6   14 1  
    14    6   15 1  
@<TRIPOS>SUBSTRUCTURE
     1 MOL         1

