### 
### Created by X-TOOL on Fri Sep 26 17:34:35 2014
### 

@<TRIPOS>MOLECULE
2ptz_ligand
   13    12     1     0     0
SMALL
GAST_HUCK


@<TRIPOS>ATOM
      1 C1         11.6580   28.1130   36.3180 C.3       1 PAH         0.1101
      2 C2         13.1260   28.4200   36.3860 C.2       1 PAH         0.2153
      3 N3         13.5540   29.2950   35.5110 N.am      1 PAH        -0.1631
      4 O3         14.8410   29.7050   35.3980 O.3       1 PAH        -0.2717
      5 O2         13.8880   27.8380   37.1630 O.2       1 PAH        -0.3954
      6 O1P        10.4960   30.3590   37.1800 O.co2     1 PAH        -0.5606
      7 O2P        11.8290   29.0880   38.7760 O.co2     1 PAH        -0.5606
      8 O3P         9.6010   28.1910   37.9080 O.co2     1 PAH        -0.5606
      9 P          10.8460   29.0270   37.6860 P.3       1 PAH         0.0776
     10 H1         11.4935   27.0320   36.4377 H         1 PAH         0.0691
     11 H2         11.2491   28.4413   35.3511 H         1 PAH         0.0691
     12 H3         12.8840   29.6886   34.8816 H         1 PAH         0.2217
     13 H4         14.9091   30.3410   34.6956 H         1 PAH         0.2490
@<TRIPOS>BOND
     1    1    2 1  
     2    1    9 1  
     3    2    3 am 
     4    2    5 2  
     5    3    4 1  
     6    9    6 ar 
     7    9    7 ar 
     8    9    8 ar 
     9    1   10 1  
    10    1   11 1  
    11    3   12 1  
    12    4   13 1  
@<TRIPOS>SUBSTRUCTURE
     1 PAH         1

