REMARK  4 active torsions:
REMARK  status: ('A' for Active; 'I' for Inactive)
REMARK    1  A    between atoms: C7_7  and  C1_1 
REMARK    2  A    between atoms: C7_7  and  N1_8 
REMARK    3  A    between atoms: C8_12  and  C1'_13 
REMARK    4  A    between atoms: C6'_18  and  O6'_19 
ROOT
ATOM      1  C1  MOL d          12.129 -11.794  22.850  0.00  0.00     0.009 A 
ATOM      2  C2  MOL d          12.134 -10.703  21.960  0.00  0.00     0.017 A 
ATOM      3  C3  MOL d          13.063 -10.608  20.946  0.00  0.00     0.035 A 
ATOM      4  C4  MOL d          13.975 -11.626  20.830  0.00  0.00     0.086 A 
ATOM      5  C5  MOL d          13.985 -12.693  21.678  0.00  0.00     0.063 A 
ATOM      6  C6  MOL d          13.070 -12.816  22.707  0.00  0.00     0.047 A 
ATOM      7  N3  MOL d          14.967 -11.752  20.002  0.00  0.00    -0.227 NA
ATOM      8  N4  MOL d          14.988 -13.455  21.355  0.00  0.00    -0.337 N 
ATOM      9  C8  MOL d          15.581 -12.868  20.334  0.00  0.00     0.160 A 
ATOM     10  H8  MOL d          15.264 -14.339  21.806  0.00  0.00     0.167 HD
ENDROOT
BRANCH   9  11
ATOM     11  C1' MOL d          16.750 -13.356  19.715  0.00  0.00     0.135 A 
ATOM     12  C6' MOL d          17.125 -13.149  18.362  0.00  0.00     0.098 A 
ATOM     13  C5' MOL d          18.354 -13.670  17.940  0.00  0.00     0.040 A 
ATOM     14  C4' MOL d          19.163 -14.372  18.846  0.00  0.00     0.022 A 
ATOM     15  C3' MOL d          18.725 -14.534  20.155  0.00  0.00     0.117 A 
ATOM     16  N2' MOL d          17.563 -14.026  20.519  0.00  0.00    -0.254 NA
BRANCH  12  17
ATOM     17  O6' MOL d          16.348 -12.458  17.441  0.00  0.00    -0.358 OA
ATOM     18  H12 MOL d          15.548 -12.163  17.861  0.00  0.00     0.217 HD
ENDBRANCH  12  17
ENDBRANCH   9  11
BRANCH   1  19
ATOM     19  C7  MOL d          11.205 -11.813  23.875  0.00  0.00     0.102 C 
ATOM     20  N2  MOL d          11.025 -10.692  24.539  0.00  0.00    -0.385 N 
ATOM     21  H6  MOL d          11.554  -9.848  24.277  0.00  0.00     0.157 HD
ATOM     22  H7  MOL d          10.355 -10.658  25.321  0.00  0.00     0.157 HD
BRANCH  19  23
ATOM     23  N1  MOL d          10.558 -12.892  24.177  0.00  0.00    -0.385 N 
ATOM     24  H4  MOL d           9.873 -12.883  24.946  0.00  0.00     0.157 HD
ATOM     25  H5  MOL d          10.728 -13.759  23.648  0.00  0.00     0.157 HD
ENDBRANCH  19  23
ENDBRANCH   1  19
TORSDOF 4
