REMARK  8 active torsions:
REMARK  status: ('A' for Active; 'I' for Inactive)
REMARK    1  A    between atoms: P_1  and  C1_5 
REMARK    2  A    between atoms: C1_5  and  C3_7 
REMARK    3  A    between atoms: C7_11  and  C12_16 
REMARK       I    between atoms: C12_16  and  N1_18 
REMARK    4  A    between atoms: N1_18  and  C13_19 
REMARK    5  A    between atoms: C13_19  and  C15_23 
REMARK    6  A    between atoms: C13_19  and  C14_20 
REMARK       I    between atoms: C14_20  and  N2_21 
REMARK    7  A    between atoms: C15_23  and  C16_24 
REMARK    8  A    between atoms: C16_24  and  C17_25 
ROOT
ATOM      1  C2  TPI d         -20.874  56.131  14.847  0.00  0.00     0.026 A 
ATOM      2  C3  TPI d         -20.617  57.514  14.715  0.00  0.00     0.028 A 
ATOM      3  C4  TPI d         -19.725  58.145  15.601  0.00  0.00     0.015 A 
ATOM      4  C5  TPI d         -19.100  57.425  16.618  0.00  0.00     0.013 A 
ATOM      5  C6  TPI d         -18.754  55.357  17.817  0.00  0.00     0.029 A 
ATOM      6  C7  TPI d         -18.998  53.991  18.000  0.00  0.00     0.032 A 
ATOM      7  C8  TPI d         -19.862  53.313  17.108  0.00  0.00     0.018 A 
ATOM      8  C9  TPI d         -20.489  54.016  16.050  0.00  0.00     0.013 A 
ATOM      9  C10 TPI d         -20.244  55.395  15.879  0.00  0.00    -0.025 A 
ATOM     10  C11 TPI d         -19.365  56.059  16.766  0.00  0.00    -0.025 A 
ENDROOT
BRANCH   6  11
ATOM     11  C12 TPI d         -18.324  53.268  19.156  0.00  0.00     0.252 C 
ATOM     12  N1  TPI d         -18.539  51.832  19.352  0.00  0.00    -0.344 N 
ATOM     13  H7  TPI d         -19.126  51.288  18.752  0.00  0.00     0.163 HD
ATOM     14  O4  TPI d         -17.608  53.925  19.900  0.00  0.00    -0.268 OA
BRANCH  12  15
ATOM     15  C13 TPI d         -17.824  51.253  20.500  0.00  0.00     0.177 C 
BRANCH  15  16
ATOM     16  C15 TPI d         -18.142  49.748  20.641  0.00  0.00     0.045 C 
BRANCH  16  17
ATOM     17  C16 TPI d         -19.628  49.505  20.944  0.00  0.00     0.116 C 
BRANCH  17  18
ATOM     18  C17 TPI d         -19.866  48.031  21.082  0.00  0.00     0.172 C 
ATOM     19  O7  TPI d         -18.955  47.204  21.068  0.00  0.00    -0.648 OA
ATOM     20  O6  TPI d         -21.139  47.677  21.233  0.00  0.00    -0.648 OA
ENDBRANCH  17  18
ENDBRANCH  16  17
ENDBRANCH  15  16
BRANCH  15  21
ATOM     21  C14 TPI d         -16.323  51.418  20.518  0.00  0.00     0.238 C 
ATOM     22  O5  TPI d         -15.621  50.987  19.617  0.00  0.00    -0.271 OA
ATOM     23  N2  TPI d         -15.724  52.071  21.663  0.00  0.00    -0.368 N 
ATOM     24  H9  TPI d         -14.733  52.196  21.706  0.00  0.00     0.159 HD
ATOM     25  H10 TPI d         -16.302  52.397  22.411  0.00  0.00     0.159 HD
ENDBRANCH  15  21
ENDBRANCH  12  15
ENDBRANCH   6  11
BRANCH   2  26
ATOM     26  C1  TPI d         -21.333  58.372  13.669  0.00  0.00     0.380 C 
ATOM     27  F2  TPI d         -22.553  57.871  13.466  0.00  0.00    -0.185 F 
ATOM     28  F1  TPI d         -21.442  59.627  14.164  0.00  0.00    -0.185 F 
BRANCH  26  29
ATOM     29  P   TPI d         -20.528  58.443  12.069  0.00  0.00     0.339 P 
ATOM     30  O3  TPI d         -19.069  59.041  12.246  0.00  0.00    -0.635 OA
ATOM     31  O2  TPI d         -21.334  59.323  11.198  0.00  0.00    -0.635 OA
ATOM     32  O1  TPI d         -20.441  56.979  11.460  0.00  0.00    -0.635 OA
ENDBRANCH  26  29
ENDBRANCH   2  26
TORSDOF 8
