### 
### Created by X-TOOL on Fri Sep 26 17:34:48 2014
### 

@<TRIPOS>MOLECULE
3k8c_ligand
   22    21     1     0     0
SMALL
GAST_HUCK


@<TRIPOS>ATOM
      1 O7         43.3420   29.4030   13.9430 O.co2     1 RES        -0.5537
      2 P          42.8750   29.3410   12.5080 P.3       1 RES         0.2008
      3 O5         43.5170   28.2360   11.7370 O.co2     1 RES        -0.5537
      4 O6         42.7470   30.6890   11.8190 O.co2     1 RES        -0.5537
      5 O4         41.3290   28.8380   12.6630 O.3       1 RES        -0.2733
      6 C4         40.2460   29.7510   12.9070 C.3       1 RES         0.1089
      7 C3         39.0120   28.9000   13.1820 C.3       1 RES         0.1256
      8 O3         39.2770   28.0340   14.2890 O.3       1 RES        -0.3842
      9 C2         37.7080   29.6540   13.4520 C.3       1 RES         0.1733
     10 O2         37.6510   30.8890   12.7220 O.3       1 RES        -0.3687
     11 C1         36.5660   28.7040   13.1410 C.2       1 RES         0.2304
     12 O1         36.4010   28.1380   12.0600 O.2       1 RES        -0.3940
     13 N          35.7500   28.4440   14.1500 N.am      1 RES        -0.1620
     14 ON         34.7040   27.5710   13.9200 O.3       1 RES        -0.2717
     15 H1         40.0796   30.3867   12.0249 H         1 RES         0.0641
     16 H2         40.4721   30.3839   13.7778 H         1 RES         0.0641
     17 H3         38.8455   28.2811   12.2880 H         1 RES         0.0672
     18 H4         40.0135   27.4714   14.0803 H         1 RES         0.2102
     19 H5         37.6629   29.9045   14.5221 H         1 RES         0.0864
     20 H6         36.8314   31.3302   12.9119 H         1 RES         0.2134
     21 H7         35.8857   28.8645   15.0471 H         1 RES         0.2217
     22 H8         35.0499   26.7272   13.6538 H         1 RES         0.2490
@<TRIPOS>BOND
     1    1    2 ar 
     2    2    3 ar 
     3    2    4 ar 
     4    2    5 1  
     5    5    6 1  
     6    6    7 1  
     7    7    8 1  
     8    7    9 1  
     9    9   10 1  
    10    9   11 1  
    11   11   12 2  
    12   11   13 am 
    13   13   14 1  
    14    6   15 1  
    15    6   16 1  
    16    7   17 1  
    17    8   18 1  
    18    9   19 1  
    19   10   20 1  
    20   13   21 1  
    21   14   22 1  
@<TRIPOS>SUBSTRUCTURE
     1 RES         1

