### 
### Created by X-TOOL on Fri Sep 26 17:34:52 2014
### 

@<TRIPOS>MOLECULE
3ta1_ligand
   39    41     1     0     0
SMALL
GAST_HUCK


@<TRIPOS>ATOM
      1 PB          4.4500  -14.4340  -14.8080 P.3       1 ADP         0.2069
      2 O1B         5.2200  -15.3710  -15.7710 O.co2     1 ADP        -0.5891
      3 O2B         3.6410  -15.2120  -13.8340 O.co2     1 ADP        -0.5891
      4 O3B         5.5160  -13.6110  -14.1080 O.co2     1 ADP        -0.5891
      5 PA          3.8330  -12.6540  -16.8640 P.3       1 ADP         0.3276
      6 O1A         4.5180  -13.4840  -17.9300 O.co2     1 ADP        -0.5556
      7 O2A         2.5180  -12.0450  -17.3070 O.co2     1 ADP        -0.5556
      8 O3A         3.5200  -13.5490  -15.6440 O.3       1 ADP        -0.1548
      9 O5'         4.8920  -11.4950  -16.4640 O.3       1 ADP        -0.2436
     10 C5'         4.5140  -10.6570  -15.4110 C.3       1 ADP         0.1132
     11 C4'         5.2720   -9.3360  -15.6180 C.3       1 ADP         0.1189
     12 O4'         6.6890   -9.5730  -15.6290 O.3       1 ADP        -0.3364
     13 C3'         4.9460   -8.7260  -16.9780 C.3       1 ADP         0.1149
     14 O3'         3.7570   -7.9130  -16.9820 O.3       1 ADP        -0.3864
     15 C2'         6.2390   -7.9110  -17.3100 C.3       1 ADP         0.1385
     16 O2'         6.1580   -6.6840  -16.6060 O.3       1 ADP        -0.3836
     17 C1'         7.3300   -8.7740  -16.6930 C.3       1 ADP         0.2010
     18 N9          8.0440   -9.7080  -17.5980 N.pl3     1 ADP        -0.1919
     19 C8          7.7420  -11.0130  -17.9150 C.2       1 ADP         0.1123
     20 N7          8.6530  -11.5580  -18.7230 N.2       1 ADP        -0.2958
     21 C5          9.5900  -10.5500  -18.9230 C.ar      1 ADP         0.1045
     22 C6         10.7950  -10.4790  -19.6850 C.ar      1 ADP         0.1298
     23 N6         11.2720  -11.5970  -20.3690 N.pl3     1 ADP        -0.3152
     24 N1         11.4920   -9.2940  -19.6930 N.ar      1 ADP        -0.2698
     25 C2         11.0330   -8.2200  -19.0260 C.ar      1 ADP         0.0533
     26 N3          9.8830   -8.2170  -18.2580 N.ar      1 ADP        -0.2714
     27 C4          9.2260   -9.3930  -18.2630 C.ar      1 ADP         0.1613
     28 H1          4.7911  -11.1081  -14.4468 H         1 ADP         0.0648
     29 H2          3.4284  -10.4810  -15.4350 H         1 ADP         0.0648
     30 H3          5.0071   -8.6344  -14.8133 H         1 ADP         0.0651
     31 H4          4.8072   -9.5265  -17.7195 H         1 ADP         0.0648
     32 H5          3.8636   -7.1950  -16.3690 H         1 ADP         0.2100
     33 H6          6.3835   -7.7513  -18.3887 H         1 ADP         0.0676
     34 H7          5.3839   -6.2099  -16.8862 H         1 ADP         0.2101
     35 H8          8.0801   -8.1022  -16.2503 H         1 ADP         0.0996
     36 H9          6.8618  -11.5394  -17.5488 H         1 ADP         0.1349
     37 H10        12.1427  -11.5336  -20.9156 H         1 ADP         0.1820
     38 H11        10.7535  -12.4860  -20.3276 H         1 ADP         0.1820
     39 H12        11.6002   -7.2988  -19.0948 H         1 ADP         0.0996
@<TRIPOS>BOND
     1    1    2 ar 
     2    1    3 ar 
     3    1    4 ar 
     4    8    1 1  
     5    5    6 ar 
     6    5    7 ar 
     7    5    8 1  
     8    5    9 1  
     9    9   10 1  
    10   10   11 1  
    11   11   12 1  
    12   11   13 1  
    13   12   17 1  
    14   13   14 1  
    15   13   15 1  
    16   15   16 1  
    17   15   17 1  
    18   17   18 1  
    19   18   19 1  
    20   18   27 1  
    21   19   20 2  
    22   20   21 1  
    23   21   22 ar 
    24   21   27 ar 
    25   22   23 1  
    26   22   24 ar 
    27   24   25 ar 
    28   25   26 ar 
    29   26   27 ar 
    30   10   28 1  
    31   10   29 1  
    32   11   30 1  
    33   13   31 1  
    34   14   32 1  
    35   15   33 1  
    36   16   34 1  
    37   17   35 1  
    38   19   36 1  
    39   23   37 1  
    40   23   38 1  
    41   25   39 1  
@<TRIPOS>SUBSTRUCTURE
     1 ADP         1

