### 
### Created by X-TOOL on Fri Sep 26 17:34:20 2014
### 

@<TRIPOS>MOLECULE
1km3_ligand
   31    32     1     0     0
SMALL
GAST_HUCK


@<TRIPOS>ATOM
      1 N1         41.8290   40.0250   37.4900 N.am      1 UP6        -0.0895
      2 C2         42.7360   39.2350   36.7940 C.2       1 UP6         0.3448
      3 N3         44.0550   39.5630   36.9940 N.am      1 UP6        -0.1783
      4 C4         44.5260   40.5920   37.8110 C.2       1 UP6         0.2283
      5 C5         43.5220   41.3400   38.4640 C.2       1 UP6         0.1074
      6 N6         42.2510   41.0510   38.2980 N.2       1 UP6        -0.1511
      7 O2         42.3560   38.3450   36.1020 O.2       1 UP6        -0.3820
      8 O4         45.7120   40.7650   37.9090 O.2       1 UP6        -0.3896
      9 C1'        40.4060   39.7740   37.4000 C.3       1 UP6         0.2182
     10 C2'        39.7040   39.8030   36.0620 C.3       1 UP6         0.1395
     11 C3'        38.5490   38.8440   36.2720 C.3       1 UP6         0.1149
     12 C4'        39.1150   37.8470   37.2340 C.3       1 UP6         0.1182
     13 O2'        39.2910   41.1170   35.6940 O.3       1 UP6        -0.3836
     14 O3'        37.4240   39.5410   36.8350 O.3       1 UP6        -0.3864
     15 O4'        40.0830   38.5570   38.0060 O.3       1 UP6        -0.3358
     16 C5'        39.7500   36.5800   36.7100 C.3       1 UP6         0.1071
     17 O5'        38.8170   35.9480   35.8240 O.3       1 UP6        -0.2734
     18 P          39.1750   34.6040   35.0350 P.3       1 UP6         0.2008
     19 O1P        40.4410   34.7070   34.2150 O.co2     1 UP6        -0.5537
     20 O2P        37.9950   34.3860   34.1440 O.co2     1 UP6        -0.5537
     21 O3P        39.2200   33.4230   36.1160 O.co2     1 UP6        -0.5537
     22 H1         44.7386   39.0157   36.5112 H         1 UP6         0.2273
     23 H2         43.8047   42.1671   39.1136 H         1 UP6         0.0786
     24 H3         39.9402   40.5740   37.9941 H         1 UP6         0.1005
     25 H4         40.3708   39.4216   35.2747 H         1 UP6         0.0676
     26 H5         38.2517   38.3608   35.3296 H         1 UP6         0.0648
     27 H6         38.2904   37.5321   37.8903 H         1 UP6         0.0650
     28 H7         38.7410   41.4784   36.3791 H         1 UP6         0.2101
     29 H8         37.0894   40.1643   36.2009 H         1 UP6         0.2100
     30 H9         39.9840   35.9062   37.5474 H         1 UP6         0.0639
     31 H10        40.6745   36.8236   36.1660 H         1 UP6         0.0639
@<TRIPOS>BOND
     1    1    2 am 
     2    1    6 1  
     3    1    9 1  
     4    2    3 am 
     5    2    7 2  
     6    3    4 am 
     7    4    5 1  
     8    4    8 2  
     9    5    6 2  
    10    9   10 1  
    11    9   15 1  
    12   10   11 1  
    13   10   13 1  
    14   11   12 1  
    15   11   14 1  
    16   12   15 1  
    17   12   16 1  
    18   16   17 1  
    19   17   18 1  
    20   18   19 ar 
    21   18   20 ar 
    22   18   21 ar 
    23    3   22 1  
    24    5   23 1  
    25    9   24 1  
    26   10   25 1  
    27   11   26 1  
    28   12   27 1  
    29   13   28 1  
    30   14   29 1  
    31   16   30 1  
    32   16   31 1  
@<TRIPOS>SUBSTRUCTURE
     1 UP6         1

