2r1y_ligand

Created by X-TOOL on Fri Sep 26 17:34:42 2014
 28 28  0  0  0  0  0  0  0  0999 V2000
   31.9460   -0.7020    0.3070  C 0  5  0  1  0  3
   31.7980    0.5390    0.3810  O 0  0  0  1  0  1
   32.9890   -1.3070   -0.0320  O 0  0  0  1  0  1
   30.6940   -1.5530    0.5950  C 0  0  0  2  0  4
   29.7720   -1.3750   -0.6290  C 0  0  0  3  0  4
   28.5930   -2.3400   -0.5460  C 0  0  0  2  0  4
   27.8430   -2.2760   -1.7870  O 0  0  0  2  0  2
   29.0710   -3.7740   -0.2970  C 0  0  0  2  0  4
   29.9000   -4.1850   -1.3900  O 0  0  0  2  0  2
   29.9330   -3.7940    0.9700  C 0  0  0  2  0  4
   31.0760   -2.9430    0.7920  O 0  0  0  1  0  2
   30.4880   -5.1760    1.3340  C 0  0  0  2  0  4
   29.3970   -6.0600    1.4880  O 0  0  0  2  0  2
   31.2860   -5.1370    2.6460  C 0  0  0  3  0  4
   30.4120   -4.8610    3.7470  O 0  0  0  2  0  2
   30.1862   -1.1889    1.5003  H 0  0  0  1  0  1
   30.3434   -1.5778   -1.5468  H 0  0  0  1  0  1
   29.3949   -0.3420   -0.6526  H 0  0  0  1  0  1
   27.9408   -2.0358    0.2859  H 0  0  0  1  0  1
   28.4082   -2.5208   -2.5103  H 0  0  0  1  0  1
   28.2100   -4.4502   -0.1898  H 0  0  0  1  0  1
   30.6486   -3.6036   -1.4543  H 0  0  0  1  0  1
   29.3209   -3.4254    1.8063  H 0  0  0  1  0  1
   31.1431   -5.5293    0.5241  H 0  0  0  1  0  1
   28.8286   -5.7423    2.1797  H 0  0  0  1  0  1
   32.0512   -4.3493    2.5829  H 0  0  0  1  0  1
   31.7737   -6.1102    2.8041  H 0  0  0  1  0  1
   29.7514   -5.5414    3.8038  H 0  0  0  1  0  1
  1  2  2  0  0  2
  1  3  2  0  0  2
  1  4  1  0  0  2
  4  5  1  0  0  1
  4 11  1  0  0  1
  5  6  1  0  0  1
  6  7  1  0  0  2
  6  8  1  0  0  1
  8  9  1  0  0  2
  8 10  1  0  0  1
 10 11  1  0  0  1
 10 12  1  0  0  2
 12 13  1  0  0  2
 12 14  1  0  0  2
 14 15  1  0  0  2
  4 16  1  0  0  2
  5 17  1  0  0  2
  5 18  1  0  0  2
  6 19  1  0  0  2
  7 20  1  0  0  2
  8 21  1  0  0  2
  9 22  1  0  0  2
 10 23  1  0  0  2
 12 24  1  0  0  2
 13 25  1  0  0  2
 14 26  1  0  0  2
 14 27  1  0  0  2
 15 28  1  0  0  2
M  END
> <MOLECULAR_FORMULA>
C8H13O7

> <MOLECULAR_WEIGHT>
221.1

> <NUM_HB_ATOMS>
7  

> <NUM_ROTOR>
2  

> <XLOGP2>
-2.65

$$$$
