3ewj_ligand

Created by X-TOOL on Fri Sep 26 17:34:40 2014
 67 66  0  0  0  0  0  0  0  0999 V2000
    6.5310    6.3770   24.2830  N 0  0  0  2  0  3
    8.7440    7.8560   27.0060  C 0  0  0  4  0  4
    7.5910    3.5340   24.8280  O 0  0  0  1  0  1
    5.5410    0.1230   24.8790  N 0  0  0  2  0  3
    5.8230    7.4310   24.6900  C 0  0  0  1  0  3
    6.9090   13.1260   24.7830  O 0  0  0  2  0  2
    5.9410    5.0680   23.9950  C 0  0  0  2  0  4
    6.1480    4.8660   22.4520  C 0  0  0  1  0  4
    7.6810    4.7620   22.1510  C 0  0  0  4  0  4
    5.4190    3.5640   21.9940  C 0  0  0  4  0  4
    6.3850    3.8700   24.8360  C 0  0  0  1  0  3
    5.5250    2.0650   26.3980  C 0  0  0  2  0  4
    4.9150    2.1880   27.8200  C 0  0  0  4  0  4
    6.1910   11.9410   24.8010  N 0  0  0  2  0  3
    6.7370   11.0420   23.9950  C 0  0  0  1  0  3
    7.8820   11.1920   23.5010  O 0  0  0  1  0  1
    5.9530    9.7320   23.8530  C 0  0  0  3  0  4
    6.5980    8.7190   24.8820  C 0  0  0  2  0  4
    6.5690    9.1910   26.3960  C 0  0  0  3  0  4
    7.2720    8.2360   27.3820  C 0  0  0  2  0  4
    7.2520    8.8330   28.7920  C 0  0  0  4  0  4
    4.6240    7.4580   24.9000  O 0  0  0  1  0  1
    5.5750    6.0820   21.6690  C 0  0  0  4  0  4
    5.3710    3.2510   25.5380  N 0  0  0  2  0  3
    4.8220    0.9930   25.5920  C 0  0  0  1  0  3
    3.6100    0.9740   25.6070  O 0  0  0  1  0  1
    4.8870   -0.9040   24.0950  C 0  0  0  3  0  4
    4.5640   -0.3800   22.6760  C 0  0  0  3  0  4
    4.9590   -1.3820   21.6790  N 0  3  0  4  0  4
    7.5184    6.4863   24.1682  H 0  0  0  1  0  1
    9.1530    7.1757   27.7675  H 0  0  0  1  0  1
    9.3580    8.7676   26.9610  H 0  0  0  1  0  1
    8.7550    7.3577   26.0254  H 0  0  0  1  0  1
    6.5393    0.1810   24.8864  H 0  0  0  1  0  1
    7.7993   12.9599   25.0699  H 0  0  0  1  0  1
    4.8603    5.1607   24.1780  H 0  0  0  1  0  1
    7.8338    4.6203   21.0709  H 0  0  0  1  0  1
    8.1046    3.9059   22.6966  H 0  0  0  1  0  1
    8.1817    5.6867   22.4739  H 0  0  0  1  0  1
    4.3440    3.6500   22.2109  H 0  0  0  1  0  1
    5.8344    2.7013   22.5355  H 0  0  0  1  0  1
    5.5647    3.4231   20.9129  H 0  0  0  1  0  1
    6.5929    1.8256   26.5084  H 0  0  0  1  0  1
    5.0851    1.2531   28.3740  H 0  0  0  1  0  1
    3.8340    2.3755   27.7404  H 0  0  0  1  0  1
    5.3936    3.0225   28.3534  H 0  0  0  1  0  1
    5.3696   11.7849   25.3496  H 0  0  0  1  0  1
    6.0424    9.3431   22.8279  H 0  0  0  1  0  1
    4.8917    9.8947   24.0922  H 0  0  0  1  0  1
    7.6508    8.5583   24.6068  H 0  0  0  1  0  1
    5.5177    9.2888   26.7044  H 0  0  0  1  0  1
    7.0624   10.1721   26.4586  H 0  0  0  1  0  1
    6.6897    7.3029   27.3960  H 0  0  0  1  0  1
    7.7551    8.1459   29.4882  H 0  0  0  1  0  1
    6.2103    8.9819   29.1124  H 0  0  0  1  0  1
    7.7763    9.8000   28.7883  H 0  0  0  1  0  1
    6.0881    7.0002   21.9910  H 0  0  0  1  0  1
    4.4977    6.1738   21.8714  H 0  0  0  1  0  1
    5.7341    5.9319   20.5910  H 0  0  0  1  0  1
    4.4537    3.6407   25.4559  H 0  0  0  1  0  1
    3.9518   -1.1991   24.5933  H 0  0  0  1  0  1
    5.5516   -1.7770   24.0157  H 0  0  0  1  0  1
    5.1173    0.5535   22.4958  H 0  0  0  1  0  1
    3.4840   -0.1879   22.5938  H 0  0  0  1  0  1
    4.7476   -1.0383   20.7553  H 0  0  0  1  0  1
    4.4520   -2.2376   21.8433  H 0  0  0  1  0  1
    5.9487   -1.5582   21.7535  H 0  0  0  1  0  1
  5  1  1  0  0  2
  1  7  1  0  0  2
 20  2  1  0  0  2
 11  3  2  0  0  2
 25  4  1  0  0  2
  4 27  1  0  0  2
 18  5  1  0  0  2
  5 22  2  0  0  2
 14  6  1  0  0  2
  7  8  1  0  0  2
  7 11  1  0  0  2
  8  9  1  0  0  2
  8 10  1  0  0  2
  8 23  1  0  0  2
 11 24  1  0  0  2
 12 13  1  0  0  2
 24 12  1  0  0  2
 12 25  1  0  0  2
 15 14  1  0  0  2
 15 16  2  0  0  2
 17 15  1  0  0  2
 18 17  1  0  0  2
 19 18  1  0  0  2
 19 20  1  0  0  2
 20 21  1  0  0  2
 25 26  2  0  0  2
 27 28  1  0  0  2
 28 29  1  0  0  2
  1 30  1  0  0  2
  2 31  1  0  0  2
  2 32  1  0  0  2
  2 33  1  0  0  2
  4 34  1  0  0  2
  6 35  1  0  0  2
  7 36  1  0  0  2
  9 37  1  0  0  2
  9 38  1  0  0  2
  9 39  1  0  0  2
 10 40  1  0  0  2
 10 41  1  0  0  2
 10 42  1  0  0  2
 12 43  1  0  0  2
 13 44  1  0  0  2
 13 45  1  0  0  2
 13 46  1  0  0  2
 14 47  1  0  0  2
 17 48  1  0  0  2
 17 49  1  0  0  2
 18 50  1  0  0  2
 19 51  1  0  0  2
 19 52  1  0  0  2
 20 53  1  0  0  2
 21 54  1  0  0  2
 21 55  1  0  0  2
 21 56  1  0  0  2
 23 57  1  0  0  2
 23 58  1  0  0  2
 23 59  1  0  0  2
 24 60  1  0  0  2
 27 61  1  0  0  2
 27 62  1  0  0  2
 28 63  1  0  0  2
 28 64  1  0  0  2
 29 65  1  0  0  2
 29 66  1  0  0  2
 29 67  1  0  0  2
M  END
> <MOLECULAR_FORMULA>
C19H38N5O5

> <MOLECULAR_WEIGHT>
416.2

> <NUM_HB_ATOMS>
10 

> <NUM_ROTOR>
11 

> <XLOGP2>
-0.26

$$$$
