### 
### Created by X-TOOL on Fri Sep 26 17:34:31 2014
### 

@<TRIPOS>MOLECULE
2iw4_ligand
   10     9     1     0     0
SMALL
GAST_HUCK


@<TRIPOS>ATOM
      1 P1        -41.0620  -65.2110   51.6070 P.3       1 MOL         0.1747
      2 O1        -40.3680  -66.1080   52.6540 O.co2     1 MOL        -0.5460
      3 O2        -40.9310  -63.7580   51.9620 O.co2     1 MOL        -0.5460
      4 O3        -40.7540  -65.6590   50.2040 O.co2     1 MOL        -0.5460
      5 N1        -42.7040  -65.5310   51.7520 N.am      1 MOL        -0.2030
      6 P2        -44.0470  -64.5520   51.8760 P.3       1 MOL         0.1546
      7 O4        -44.5960  -64.5210   53.3280 O.co2     1 MOL        -0.5646
      8 O5        -43.6580  -63.1220   51.5030 O.co2     1 MOL        -0.5646
      9 O6        -45.0370  -65.2490   50.8950 O.co2     1 MOL        -0.5646
     10 H1        -42.9199  -66.5073   51.7670 H         1 MOL         0.2053
@<TRIPOS>BOND
     1    1    2 ar 
     2    1    3 ar 
     3    1    4 ar 
     4    1    5 am 
     5    5    6 1  
     6    6    7 ar 
     7    6    8 ar 
     8    6    9 ar 
     9    5   10 1  
@<TRIPOS>SUBSTRUCTURE
     1 MOL         1

