### 
### Created by X-TOOL on Fri Sep 26 17:34:39 2014
### 

@<TRIPOS>MOLECULE
2vfk_ligand
   35    37     1     0     0
SMALL
GAST_HUCK


@<TRIPOS>ATOM
      1 P         -13.5760  -10.1950   -1.3180 P.3       1 AMP         0.2008
      2 O1P       -14.8530   -9.9940   -0.5190 O.co2     1 AMP        -0.5537
      3 O2P       -13.2630  -11.6410   -1.5200 O.co2     1 AMP        -0.5537
      4 O3P       -13.5290   -9.3330   -2.5620 O.co2     1 AMP        -0.5537
      5 O5'       -12.3660   -9.6170   -0.4330 O.3       1 AMP        -0.2734
      6 C5'       -12.1580  -10.2140    0.8530 C.3       1 AMP         0.1072
      7 C4'       -11.8060   -9.1190    1.8580 C.3       1 AMP         0.1182
      8 O4'       -10.6940   -8.3320    1.4180 O.3       1 AMP        -0.3365
      9 C3'       -12.9920   -8.1720    1.9730 C.3       1 AMP         0.1149
     10 O3'       -13.6620   -8.3130    3.2030 O.3       1 AMP        -0.3864
     11 C2'       -12.4260   -6.8050    1.8620 C.3       1 AMP         0.1385
     12 O2'       -12.9140   -6.0170    2.9430 O.3       1 AMP        -0.3836
     13 C1'       -10.9310   -7.0050    1.9210 C.3       1 AMP         0.2010
     14 N9        -10.3690   -6.0020    1.0030 N.pl3     1 AMP        -0.1919
     15 C8        -10.7970   -5.7370   -0.2630 C.2       1 AMP         0.1123
     16 N7        -10.0630   -4.7730   -0.8440 N.2       1 AMP        -0.2958
     17 C5         -9.1230   -4.4250    0.0670 C.ar      1 AMP         0.1045
     18 C6         -8.0360   -3.4320    0.0760 C.ar      1 AMP         0.1298
     19 N6         -7.8310   -2.6560   -1.0210 N.pl3     1 AMP        -0.3152
     20 N1         -7.2840   -3.3680    1.2220 N.ar      1 AMP        -0.2698
     21 C2         -7.5410   -4.1320    2.3060 C.ar      1 AMP         0.0533
     22 N3         -8.5150   -5.0570    2.3730 N.ar      1 AMP        -0.2714
     23 C4         -9.3290   -5.2280    1.2760 C.ar      1 AMP         0.1613
     24 H1        -11.3332  -10.9394    0.7939 H         1 AMP         0.0639
     25 H2        -13.0761  -10.7279    1.1740 H         1 AMP         0.0639
     26 H3        -11.5793   -9.5743    2.8334 H         1 AMP         0.0650
     27 H4        -13.7015   -8.3596    1.1536 H         1 AMP         0.0648
     28 H5        -14.3930   -7.7070    3.2355 H         1 AMP         0.2100
     29 H6        -12.7105   -6.3358    0.9087 H         1 AMP         0.0676
     30 H7        -12.6477   -6.4104    3.7657 H         1 AMP         0.2101
     31 H8        -10.5324   -6.8858    2.9393 H         1 AMP         0.0996
     32 H9        -11.6315   -6.2442   -0.7449 H         1 AMP         0.1349
     33 H10        -7.0731   -1.9586   -1.0241 H         1 AMP         0.1820
     34 H11        -8.4336   -2.7654   -1.8491 H         1 AMP         0.1820
     35 H12        -6.9192   -3.9897    3.1825 H         1 AMP         0.0996
@<TRIPOS>BOND
     1    1    2 ar 
     2    1    3 ar 
     3    1    4 ar 
     4    1    5 1  
     5    5    6 1  
     6    6    7 1  
     7    7    8 1  
     8    7    9 1  
     9    8   13 1  
    10    9   10 1  
    11    9   11 1  
    12   11   12 1  
    13   11   13 1  
    14   13   14 1  
    15   14   15 1  
    16   14   23 1  
    17   15   16 2  
    18   16   17 1  
    19   17   18 ar 
    20   17   23 ar 
    21   18   19 1  
    22   18   20 ar 
    23   20   21 ar 
    24   21   22 ar 
    25   22   23 ar 
    26    6   24 1  
    27    6   25 1  
    28    7   26 1  
    29    9   27 1  
    30   10   28 1  
    31   11   29 1  
    32   12   30 1  
    33   13   31 1  
    34   15   32 1  
    35   19   33 1  
    36   19   34 1  
    37   21   35 1  
@<TRIPOS>SUBSTRUCTURE
     1 AMP         1

