### 
### Created by X-TOOL on Fri Sep 26 17:34:12 2014
### 

@<TRIPOS>MOLECULE
1dar_ligand
   40    42     1     0     0
SMALL
GAST_HUCK


@<TRIPOS>ATOM
      1 PB         35.7410   31.4950  -20.3320 P.3       1 GDP         0.2069
      2 O1B        35.3560   30.9410  -19.0810 O.co2     1 GDP        -0.5891
      3 O2B        34.9090   32.8600  -20.2240 O.co2     1 GDP        -0.5891
      4 O3B        37.2680   32.1210  -20.2260 O.co2     1 GDP        -0.5891
      5 O3A        35.7000   30.2100  -21.1350 O.3       1 GDP        -0.1548
      6 PA         34.8250   29.0000  -20.7480 P.3       1 GDP         0.3276
      7 O1A        35.1090   27.8550  -21.6280 O.co2     1 GDP        -0.5556
      8 O2A        33.3410   29.4680  -21.1300 O.co2     1 GDP        -0.5556
      9 O5         35.0240   28.4330  -19.3460 O.3       1 GDP        -0.2436
     10 C5         36.2230   27.7480  -19.0200 C.3       1 GDP         0.1132
     11 C4         36.0010   26.3540  -18.3910 C.3       1 GDP         0.1189
     12 O4         34.8460   26.4250  -17.4920 O.3       1 GDP        -0.3363
     13 C3         35.5630   25.2440  -19.3540 C.3       1 GDP         0.1150
     14 O3         36.1290   24.0060  -18.9520 O.3       1 GDP        -0.3864
     15 C2         34.0860   25.0510  -19.2280 C.3       1 GDP         0.1387
     16 O2         33.9030   23.6980  -19.7550 O.3       1 GDP        -0.3836
     17 C1         33.8870   25.3170  -17.6850 C.3       1 GDP         0.1992
     18 N9         32.4850   25.7790  -17.3580 N.pl3     1 GDP        -0.2101
     19 C8         31.7450   26.8440  -17.8090 C.2       1 GDP         0.0957
     20 N7         30.5160   26.8870  -17.4130 N.2       1 GDP        -0.3235
     21 C5         30.4760   25.7440  -16.6330 C.2       1 GDP         0.0926
     22 C6         29.4180   25.2200  -15.8950 C.2       1 GDP         0.2135
     23 O6         28.2430   25.5910  -15.8340 O.2       1 GDP        -0.4091
     24 N1         29.8050   24.1250  -15.2310 N.am      1 GDP        -0.1839
     25 C2         31.0300   23.5810  -15.2490 C.2       1 GDP         0.2340
     26 N2         31.2110   22.5370  -14.4460 N.pl3     1 GDP        -0.2807
     27 N3         32.0300   24.0360  -15.9430 N.2       1 GDP        -0.2765
     28 C4         31.6650   25.1070  -16.5990 C.2       1 GDP         0.1159
     29 H1         36.7893   28.3634  -18.3054 H         1 GDP         0.0648
     30 H2         36.8105   27.6218  -19.9414 H         1 GDP         0.0648
     31 H3         36.9157   26.0555  -17.8578 H         1 GDP         0.0651
     32 H4         35.8487   25.4959  -20.3859 H         1 GDP         0.0648
     33 H5         35.8537   23.3233  -19.5526 H         1 GDP         0.2100
     34 H6         33.4916   25.7656  -19.8163 H         1 GDP         0.0676
     35 H7         34.4032   23.0844  -19.2298 H         1 GDP         0.2101
     36 H8         34.1406   24.4338  -17.0804 H         1 GDP         0.0998
     37 H9         32.1685   27.6064  -18.4611 H         1 GDP         0.1179
     38 H10        29.1154   23.6693  -14.6681 H         1 GDP         0.2515
     39 H11        32.1277   22.0689  -14.4085 H         1 GDP         0.1897
     40 H12        30.4345   22.1962  -13.8614 H         1 GDP         0.1897
@<TRIPOS>BOND
     1    1    2 ar 
     2    1    3 ar 
     3    1    4 ar 
     4    1    5 1  
     5    5    6 1  
     6    6    7 ar 
     7    6    8 ar 
     8    6    9 1  
     9    9   10 1  
    10   10   11 1  
    11   11   12 1  
    12   11   13 1  
    13   12   17 1  
    14   13   14 1  
    15   13   15 1  
    16   15   16 1  
    17   15   17 1  
    18   17   18 1  
    19   18   19 1  
    20   18   28 1  
    21   19   20 2  
    22   20   21 1  
    23   21   22 1  
    24   21   28 2  
    25   22   23 2  
    26   22   24 am 
    27   24   25 am 
    28   25   26 1  
    29   25   27 2  
    30   27   28 1  
    31   10   29 1  
    32   10   30 1  
    33   11   31 1  
    34   13   32 1  
    35   14   33 1  
    36   15   34 1  
    37   16   35 1  
    38   17   36 1  
    39   19   37 1  
    40   24   38 1  
    41   26   39 1  
    42   26   40 1  
@<TRIPOS>SUBSTRUCTURE
     1 GDP         1

