### 
### Created by X-TOOL on Sun Nov 13 14:27:53 2016
### 

@<TRIPOS>MOLECULE
4or4_ligand
   45    47     1     0     0
SMALL
GAST_HUCK


@<TRIPOS>ATOM
      1 PA         -9.9430   24.9820  -46.3540 P.3       1 M7G         0.3276
      2 O1A       -10.1520   26.4540  -46.6510 O.co2     1 M7G        -0.5556
      3 O2A        -9.0400   24.1600  -47.1610 O.co2     1 M7G        -0.5556
      4 O3A       -11.4010   24.2400  -46.5160 O.3       1 M7G        -0.1548
      5 O5'        -9.5700   24.7210  -44.7750 O.3       1 M7G        -0.2436
      6 PB        -12.7650   24.7580  -45.8110 P.3       1 M7G         0.2069
      7 O1B       -13.0920   26.2210  -45.8450 O.co2     1 M7G        -0.5891
      8 O2B       -13.8260   23.8760  -46.4280 O.co2     1 M7G        -0.5891
      9 O3B       -12.8070   24.5460  -44.2240 O.co2     1 M7G        -0.5891
     10 C5'        -9.2980   23.3770  -44.3750 C.3       1 M7G         0.1132
     11 C4'        -8.2540   23.4760  -43.2620 C.3       1 M7G         0.1190
     12 O4'        -8.3400   22.2700  -42.4910 O.3       1 M7G        -0.3350
     13 C3'        -6.8820   23.4860  -43.9240 C.3       1 M7G         0.1151
     14 O3'        -6.0100   24.1940  -43.0540 O.3       1 M7G        -0.3864
     15 C2'        -6.5070   22.0260  -43.9060 C.3       1 M7G         0.1403
     16 O2'        -5.0830   21.9210  -43.7600 O.3       1 M7G        -0.3835
     17 C1'        -7.1700   21.4630  -42.6360 C.3       1 M7G         0.2161
     18 N9         -7.2420   19.9570  -42.6860 N.pl3     1 M7G        -0.1150
     19 C8         -7.8830   18.9850  -43.6930 C.3       1 M7G         0.1828
     20 N7         -7.9190   17.5450  -43.1140 N.2       1 M7G        -0.1574
     21 CM7        -8.4340   16.6720  -43.9380 C.2       1 M7G         0.0947
     22 C5         -7.7810   17.8970  -41.7420 C.2       1 M7G         0.3913
     23 C6         -7.9590   17.1650  -40.4970 C.2       1 M7G         0.3632
     24 O6         -8.2690   16.0020  -40.5990 O.2       1 M7G        -0.3016
     25 N1         -7.7890   17.8050  -39.2880 N.am      1 M7G        -0.2269
     26 C2         -7.4020   19.1140  -39.1590 C.cat     1 M7G         0.2178
     27 N2         -7.2160   19.7450  -37.9550 N.pl3     1 M7G        -0.3302
     28 N3         -7.2270   19.8700  -40.2700 N.pl3     1 M7G        -0.1467
     29 C4         -7.4370   19.3160  -41.4990 C.2       1 M7G         0.4213
     30 H1         -8.9010   22.7983  -45.2220 H         1 M7G         0.0648
     31 H2        -10.2135   22.8965  -43.9996 H         1 M7G         0.0648
     32 H3         -8.4100   24.3687  -42.6386 H         1 M7G         0.0651
     33 H4         -6.8900   23.9139  -44.9373 H         1 M7G         0.0648
     34 H5         -5.1397   24.2221  -43.4339 H         1 M7G         0.2100
     35 H6         -6.8510   21.5051  -44.8117 H         1 M7G         0.0677
     36 H7         -4.8179   22.3337  -42.9464 H         1 M7G         0.2101
     37 H8         -6.5270   21.6891  -41.7726 H         1 M7G         0.1018
     38 H9         -7.2943   18.9865  -44.6222 H         1 M7G         0.0880
     39 H10        -8.9102   19.3136  -43.9092 H         1 M7G         0.0880
     40 H11        -8.5132   15.6264  -43.6440 H         1 M7G         0.2090
     41 H12        -8.7842   16.9898  -44.9190 H         1 M7G         0.2090
     42 H13        -7.9585   17.2818  -38.4528 H         1 M7G         0.1849
     43 H14        -6.9240   20.7325  -37.9308 H         1 M7G         0.1780
     44 H15        -7.3683   19.2313  -37.0754 H         1 M7G         0.1780
     45 H16        -6.9377   20.8551  -40.1873 H         1 M7G         0.2663
@<TRIPOS>BOND
     1    1    2 ar 
     2    1    3 ar 
     3    1    4 1  
     4    1    5 1  
     5    4    6 1  
     6    5   10 1  
     7    6    7 ar 
     8    6    8 ar 
     9    6    9 ar 
    10   10   11 1  
    11   11   12 1  
    12   11   13 1  
    13   12   17 1  
    14   13   14 1  
    15   13   15 1  
    16   15   16 1  
    17   15   17 1  
    18   17   18 1  
    19   18   19 1  
    20   18   29 1  
    21   19   20 1  
    22   20   21 2  
    23   20   22 1  
    24   22   23 1  
    25   22   29 2  
    26   23   24 2  
    27   23   25 am 
    28   25   26 ar 
    29   26   27 ar 
    30   26   28 ar 
    31   28   29 1  
    32   10   30 1  
    33   10   31 1  
    34   11   32 1  
    35   13   33 1  
    36   14   34 1  
    37   15   35 1  
    38   16   36 1  
    39   17   37 1  
    40   19   38 1  
    41   19   39 1  
    42   21   40 1  
    43   21   41 1  
    44   25   42 1  
    45   27   43 1  
    46   27   44 1  
    47   28   45 1  
@<TRIPOS>SUBSTRUCTURE
     1 M7G         1

