### 
### Created by X-TOOL on Fri Sep 26 17:34:29 2014
### 

@<TRIPOS>MOLECULE
1s5z_ligand
   40    42     1     0     0
SMALL
GAST_HUCK


@<TRIPOS>ATOM
      1 PB          3.7600  -20.3990    4.8340 P.3       1 SON         0.0791
      2 O1B         4.9760  -21.2280    5.0220 O.co2     1 SON        -0.5605
      3 O2B         3.1160  -20.1060    6.1380 O.co2     1 SON        -0.5605
      4 O3B         4.2670  -18.9960    4.2730 O.co2     1 SON        -0.5605
      5 CB          2.6530  -21.1830    3.7600 C.3       1 SON         0.1197
      6 CA          1.5280  -22.0620    4.2610 C.2       1 SON         0.2505
      7 OA          1.6760  -23.2840    4.2640 O.2       1 SON        -0.3688
      8 O5'         0.5790  -21.3950    5.1000 O.3       1 SON        -0.2731
      9 C5'         0.0090  -20.2850    4.4040 C.3       1 SON         0.1056
     10 C4'        -0.5100  -19.2630    5.3890 C.3       1 SON         0.1182
     11 O4'        -1.6570  -19.7930    6.1020 O.3       1 SON        -0.3364
     12 C1'        -1.6940  -19.2550    7.4150 C.3       1 SON         0.2010
     13 N9         -1.7240  -20.3640    8.3690 N.pl3     1 SON        -0.1919
     14 C4         -2.5590  -20.4800    9.4530 C.ar      1 SON         0.1613
     15 N3         -3.5100  -19.6160    9.8450 N.ar      1 SON        -0.2714
     16 C2         -4.1230  -20.0620   10.9420 C.ar      1 SON         0.0533
     17 N1         -3.9070  -21.1900   11.6370 N.ar      1 SON        -0.2698
     18 C6         -2.9420  -22.0350   11.2120 C.ar      1 SON         0.1298
     19 N6         -2.7230  -23.1570   11.9020 N.pl3     1 SON        -0.3152
     20 C5         -2.2210  -21.6770   10.0620 C.ar      1 SON         0.1045
     21 N7         -1.1930  -22.3040    9.3740 N.2       1 SON        -0.2958
     22 C8         -0.9360  -21.4880    8.3810 C.2       1 SON         0.1123
     23 C2'        -0.4660  -18.3560    7.5820 C.3       1 SON         0.1385
     24 O2'        -0.8360  -17.0050    7.3980 O.3       1 SON        -0.3836
     25 C3'         0.4630  -18.8960    6.4970 C.3       1 SON         0.1149
     26 O3'         1.4010  -17.9240    6.0450 O.3       1 SON        -0.3864
     27 H1          3.2634  -21.8140    3.0973 H         1 SON         0.0709
     28 H2          2.1789  -20.3839    3.1712 H         1 SON         0.0709
     29 H3         -0.8215  -20.6380    3.7750 H         1 SON         0.0640
     30 H4          0.7779  -19.8203    3.7693 H         1 SON         0.0640
     31 H5         -0.7892  -18.3573    4.8307 H         1 SON         0.0651
     32 H6         -2.6024  -18.6487    7.5463 H         1 SON         0.0996
     33 H7         -4.9082  -19.4220   11.3278 H         1 SON         0.0996
     34 H8         -1.9924  -23.8154   11.5961 H         1 SON         0.1820
     35 H9         -3.2847  -23.3641   12.7402 H         1 SON         0.1820
     36 H10        -0.1680  -21.6837    7.6342 H         1 SON         0.1349
     37 H11        -0.0111  -18.4732    8.5767 H         1 SON         0.0676
     38 H12        -0.0712  -16.4513    7.5025 H         1 SON         0.2101
     39 H13         1.0076  -19.7818    6.8559 H         1 SON         0.0648
     40 H14         1.9534  -18.3069    5.3736 H         1 SON         0.2100
@<TRIPOS>BOND
     1    1    2 ar 
     2    1    3 ar 
     3    1    4 ar 
     4    1    5 1  
     5    5    6 1  
     6    6    7 2  
     7    6    8 1  
     8    8    9 1  
     9    9   10 1  
    10   10   11 1  
    11   10   25 1  
    12   11   12 1  
    13   12   13 1  
    14   12   23 1  
    15   13   14 1  
    16   13   22 1  
    17   14   15 ar 
    18   14   20 ar 
    19   15   16 ar 
    20   16   17 ar 
    21   17   18 ar 
    22   18   19 1  
    23   18   20 ar 
    24   20   21 1  
    25   21   22 2  
    26   23   24 1  
    27   23   25 1  
    28   25   26 1  
    29    5   27 1  
    30    5   28 1  
    31    9   29 1  
    32    9   30 1  
    33   10   31 1  
    34   12   32 1  
    35   16   33 1  
    36   19   34 1  
    37   19   35 1  
    38   22   36 1  
    39   23   37 1  
    40   24   38 1  
    41   25   39 1  
    42   26   40 1  
@<TRIPOS>SUBSTRUCTURE
     1 SON         1

