1ct8_ligand

Created by X-TOOL on Fri Sep 26 17:34:16 2014
 55 56  0  0  0  0  0  0  0  0999 V2000
   65.0330   24.5750   35.6880  F 0  0  0  1  0  1
   66.7840   24.7680   34.2370  F 0  0  0  1  0  1
   65.5050   22.9310   34.1260  F 0  0  0  1  0  1
   59.0390   36.1050   27.2630 Cl 0  0  0  1  0  1
   57.9370   37.2690   29.7060 Cl 0  0  0  1  0  1
   59.6710   29.6930   30.2390  P 0  0  0  1  0  4
   59.1360   31.1000   29.6780  O 0  0  0  1  0  2
   59.7220   28.6960   29.1910  O 0  0  0  1  0  1
   58.8370   29.3040   31.4270  O 0  0  0  1  0  1
   61.2770   30.1090   30.6770  C 0  0  0  3  0  4
   62.0410   29.0300   31.3560  C 0  0  0  1  0  3
   61.7030   28.7660   32.6780  C 0  0  0  2  0  3
   63.0570   28.3010   30.7110  C 0  0  0  2  0  3
   62.3420   27.8030   33.3960  C 0  0  0  2  0  3
   63.3690   27.0570   32.8110  C 0  0  0  1  0  3
   63.7270   27.3010   31.4530  C 0  0  0  2  0  3
   64.1250   26.1400   33.7200  N 0  0  0  2  0  3
   64.6080   24.9730   33.2980  C 0  0  0  1  0  3
   64.4920   24.4900   32.1670  O 0  0  0  1  0  1
   65.4890   24.2770   34.3790  C 0  0  0  1  0  4
   57.8250   31.1850   29.0340  C 0  0  0  2  0  4
   57.1850   32.4170   29.5720  C 0  0  0  2  0  4
   56.6940   32.1900   31.0920  C 0  0  0  3  0  4
   56.2660   33.4180   31.6930  O 0  0  0  2  0  2
   57.9860   33.5890   29.4070  N 0  0  0  2  0  3
   57.5180   34.7540   29.0350  C 0  0  0  1  0  3
   56.3360   34.9730   28.7820  O 0  0  0  1  0  1
   58.5690   35.8120   28.9600  C 0  0  0  2  0  4
   57.8470   31.0960   27.5440  C 0  0  0  1  0  3
   56.8800   30.4200   26.8530  C 0  0  0  2  0  3
   58.9010   31.7230   26.8860  C 0  0  0  2  0  3
   56.9570   30.3600   25.5000  C 0  0  0  2  0  3
   58.0210   30.9900   24.8280  C 0  0  0  1  0  3
   58.9850   31.6680   25.5200  C 0  0  0  2  0  3
   58.1100   30.9530   23.4030  N 0  0  0  1  0  3
   58.9130   31.7220   22.8550  O 0  0  0  1  0  1
   57.3770   30.1790   22.7570  O 0  0  0  1  0  1
   61.2329   30.9745   31.3545  H 0  0  0  1  0  1
   61.8195   30.3873   29.7614  H 0  0  0  1  0  1
   60.9125   29.3402   33.1476  H 0  0  0  1  0  1
   63.3179   28.4997   29.6778  H 0  0  0  1  0  1
   62.0540   27.6140   34.4238  H 0  0  0  1  0  1
   64.5144   26.7188   30.9882  H 0  0  0  1  0  1
   64.2717   26.4111   34.6713  H 0  0  0  1  0  1
   57.2313   30.3250   29.3773  H 0  0  0  1  0  1
   56.2776   32.5837   28.9729  H 0  0  0  1  0  1
   57.5270   31.7758   31.6789  H 0  0  0  1  0  1
   55.8546   31.4790   31.0944  H 0  0  0  1  0  1
   55.9839   33.2514   32.5847  H 0  0  0  1  0  1
   58.9668   33.5146   29.5872  H 0  0  0  1  0  1
   59.4570   35.4797   29.5176  H 0  0  0  1  0  1
   56.0634   29.9388   27.3789  H 0  0  0  1  0  1
   59.6553   32.2548   27.4545  H 0  0  0  1  0  1
   56.1995   29.8271   24.9368  H 0  0  0  1  0  1
   59.8012   32.1534   24.9973  H 0  0  0  1  0  1
 28  5  1  0  0  2
 28  4  1  0  0  2
 20  1  1  0  0  2
 20  2  1  0  0  2
 20  3  1  0  0  2
 10  6  1  0  0  2
  6  9  2  0  0  2
  6  8  2  0  0  2
  6  7  1  0  0  2
  7 21  1  0  0  2
 21 29  1  0  0  2
 21 22  1  0  0  2
 22 25  1  0  0  2
 22 23  1  0  0  2
 23 24  1  0  0  2
 25 26  1  0  0  2
 26 28  1  0  0  2
 26 27  2  0  0  2
 29 31  4  0  0  1
 29 30  4  0  0  1
 30 32  4  0  0  1
 32 33  4  0  0  1
 33 35  1  0  0  2
 34 33  4  0  0  1
 31 34  4  0  0  1
 35 37  2  0  0  2
 35 36  2  0  0  2
 11 10  1  0  0  2
 13 11  4  0  0  1
 12 11  4  0  0  1
 14 12  4  0  0  1
 15 14  4  0  0  1
 17 15  1  0  0  2
 15 16  4  0  0  1
 16 13  4  0  0  1
 18 17  1  0  0  2
 18 20  1  0  0  2
 18 19  2  0  0  2
 10 38  1  0  0  2
 10 39  1  0  0  2
 12 40  1  0  0  2
 13 41  1  0  0  2
 14 42  1  0  0  2
 16 43  1  0  0  2
 17 44  1  0  0  2
 21 45  1  0  0  2
 22 46  1  0  0  2
 23 47  1  0  0  2
 23 48  1  0  0  2
 24 49  1  0  0  2
 25 50  1  0  0  2
 28 51  1  0  0  2
 30 52  1  0  0  2
 31 53  1  0  0  2
 32 54  1  0  0  2
 34 55  1  0  0  2
M  END
> <MOLECULAR_FORMULA>
C20H18N3O8PF3Cl2

> <MOLECULAR_WEIGHT>
587.1

> <NUM_HB_ATOMS>
10 

> <NUM_ROTOR>
9  

> <XLOGP2>
2.62 

$$$$
