### 
### Created by X-TOOL on Fri Sep 26 17:34:40 2014
### 

@<TRIPOS>MOLECULE
2vt3_ligand
   43    45     1     0     0
SMALL
GAST_HUCK


@<TRIPOS>ATOM
      1 PG         16.9100    7.4790  -34.1450 P.3       1 ATP         0.1879
      2 O1G        15.4530    7.2910  -34.5290 O.co2     1 ATP        -0.6091
      3 O2G        17.7200    8.3600  -35.0790 O.co2     1 ATP        -0.6091
      4 O3G        17.5560    6.1910  -33.7250 O.co2     1 ATP        -0.6091
      5 PB         17.7470    9.0430  -31.7640 P.3       1 ATP         0.3553
      6 O1B        16.8600    9.6000  -30.6750 O.co2     1 ATP        -0.5652
      7 O2B        18.8010    8.0740  -31.2800 O.co2     1 ATP        -0.5652
      8 O3B        16.7040    8.2930  -32.7560 O.3       1 ATP        -0.1546
      9 PA         19.3350   11.4060  -32.2720 P.3       1 ATP         0.3266
     10 O1A        19.4560   11.4330  -30.7710 O.co2     1 ATP        -0.5692
     11 O2A        20.6030   11.4560  -33.0560 O.co2     1 ATP        -0.5692
     12 O3A        18.3690   10.1860  -32.7220 O.3       1 ATP        -0.1171
     13 O5'        18.4860   12.7040  -32.6870 O.3       1 ATP        -0.2441
     14 C5'        17.1930   12.8630  -32.1230 C.3       1 ATP         0.1131
     15 C4'        16.2380   13.1700  -33.2640 C.3       1 ATP         0.1189
     16 O4'        16.5880   14.4700  -33.6960 O.3       1 ATP        -0.3364
     17 C3'        16.2820   12.2670  -34.5140 C.3       1 ATP         0.1149
     18 O3'        14.9550   12.0050  -35.0170 O.3       1 ATP        -0.3864
     19 C2'        17.0160   13.0880  -35.5380 C.3       1 ATP         0.1385
     20 O2'        16.6580   12.8160  -36.8860 O.3       1 ATP        -0.3836
     21 C1'        16.6080   14.4980  -35.1300 C.3       1 ATP         0.2010
     22 N9         17.5270   15.5320  -35.5880 N.pl3     1 ATP        -0.1919
     23 C8         18.8650   15.4650  -35.6030 C.2       1 ATP         0.1123
     24 N7         19.3650   16.6220  -36.0580 N.2       1 ATP        -0.2958
     25 C5         18.3430   17.4460  -36.3350 C.ar      1 ATP         0.1045
     26 C6         18.1680   18.8080  -36.8660 C.ar      1 ATP         0.1298
     27 N6         19.2300   19.5700  -37.1930 N.pl3     1 ATP        -0.3152
     28 N1         16.9220   19.2930  -36.9830 N.ar      1 ATP        -0.2698
     29 C2         15.8450   18.5590  -36.6700 C.ar      1 ATP         0.0533
     30 N3         15.9360   17.3100  -36.2150 N.ar      1 ATP        -0.2714
     31 C4         17.1280   16.7150  -36.0350 C.ar      1 ATP         0.1613
     32 H1         17.1964   13.6930  -31.4012 H         1 ATP         0.0648
     33 H2         16.8872   11.9365  -31.6150 H         1 ATP         0.0648
     34 H3         15.2116   13.1545  -32.8689 H         1 ATP         0.0651
     35 H4         16.8028   11.3219  -34.3008 H         1 ATP         0.0648
     36 H5         15.0127   11.4482  -35.7846 H         1 ATP         0.2100
     37 H6         18.1018   12.9460  -35.4334 H         1 ATP         0.0676
     38 H7         15.7318   12.9890  -37.0076 H         1 ATP         0.2101
     39 H8         15.6052   14.7201  -35.5238 H         1 ATP         0.0996
     40 H9         19.4549   14.6036  -35.2933 H         1 ATP         0.1349
     41 H10        19.0874   20.5206  -37.5631 H         1 ATP         0.1820
     42 H11        20.1845   19.2019  -37.0729 H         1 ATP         0.1820
     43 H12        14.8617   18.9987  -36.7918 H         1 ATP         0.0996
@<TRIPOS>BOND
     1    1    2 ar 
     2    1    3 ar 
     3    1    4 ar 
     4    8    1 1  
     5    5    6 ar 
     6    5    7 ar 
     7    5    8 1  
     8   12    5 1  
     9    9   10 ar 
    10    9   11 ar 
    11    9   12 1  
    12    9   13 1  
    13   13   14 1  
    14   14   15 1  
    15   15   16 1  
    16   15   17 1  
    17   16   21 1  
    18   17   18 1  
    19   17   19 1  
    20   19   20 1  
    21   19   21 1  
    22   21   22 1  
    23   22   23 1  
    24   22   31 1  
    25   23   24 2  
    26   24   25 1  
    27   25   26 ar 
    28   25   31 ar 
    29   26   27 1  
    30   26   28 ar 
    31   28   29 ar 
    32   29   30 ar 
    33   30   31 ar 
    34   14   32 1  
    35   14   33 1  
    36   15   34 1  
    37   17   35 1  
    38   18   36 1  
    39   19   37 1  
    40   20   38 1  
    41   21   39 1  
    42   23   40 1  
    43   27   41 1  
    44   27   42 1  
    45   29   43 1  
@<TRIPOS>SUBSTRUCTURE
     1 ATP         1

