### 
### Created by X-TOOL on Fri Sep 26 17:34:41 2014
### 

@<TRIPOS>MOLECULE
2v54_ligand
   38    39     1     0     0
SMALL
GAST_HUCK


@<TRIPOS>ATOM
      1 PA         11.3860   20.2800    2.1180 P.3       1 TYD         0.3276
      2 O1A        12.3330   19.7820    1.0960 O.co2     1 TYD        -0.5556
      3 O2A        10.4090   19.3290    2.6920 O.co2     1 TYD        -0.5556
      4 O3A        12.2660   20.9180    3.3050 O.3       1 TYD        -0.1548
      5 PB         11.6600   21.1970    4.7690 P.3       1 TYD         0.2069
      6 O1B        12.3100   20.3710    5.8120 O.co2     1 TYD        -0.5891
      7 O2B        11.8430   22.7770    5.0190 O.co2     1 TYD        -0.5891
      8 O3B        10.0720   20.9550    4.6820 O.co2     1 TYD        -0.5891
      9 O5'        10.6080   21.5710    1.5520 O.3       1 TYD        -0.2436
     10 C5'        11.3400   22.7740    1.3050 C.3       1 TYD         0.1131
     11 C4'        10.4120   23.9680    1.0730 C.3       1 TYD         0.1163
     12 O4'         9.6410   23.7320   -0.1190 O.3       1 TYD        -0.3395
     13 C3'         9.4100   24.1100    2.2240 C.3       1 TYD         0.0889
     14 O3'         9.1850   25.4960    2.4980 O.3       1 TYD        -0.3890
     15 C2'         8.1580   23.4730    1.6240 C.3       1 TYD         0.0308
     16 C1'         8.2710   24.0230    0.2020 C.3       1 TYD         0.1757
     17 N1          7.3970   23.3190   -0.7650 N.am      1 TYD        -0.1736
     18 C2          6.4700   24.0160   -1.5490 C.2       1 TYD         0.3265
     19 O2          6.3500   25.2340   -1.4380 O.2       1 TYD        -0.3843
     20 N3          5.7050   23.3260   -2.5000 N.am      1 TYD        -0.1859
     21 C4          5.8750   21.9500   -2.6710 C.2       1 TYD         0.1930
     22 O4          5.2340   21.3530   -3.5390 O.2       1 TYD        -0.4079
     23 C5          6.7960   21.2580   -1.8900 C.2       1 TYD         0.0225
     24 C5M         6.9790   19.7480   -2.0650 C.3       1 TYD        -0.0437
     25 C6          7.5500   21.9360   -0.9440 C.2       1 TYD         0.0524
     26 H1         11.9670   22.6321    0.4124 H         1 TYD         0.0648
     27 H2         11.9810   22.9852    2.1736 H         1 TYD         0.0648
     28 H3         11.0073   24.8875    0.9727 H         1 TYD         0.0650
     29 H4          9.7437   23.5877    3.1328 H         1 TYD         0.0622
     30 H5          8.5637   25.5798    3.2117 H         1 TYD         0.2099
     31 H6          7.2405   23.8131    2.1264 H         1 TYD         0.0344
     32 H7          8.2026   22.3741    1.6464 H         1 TYD         0.0344
     33 H8          8.0610   25.1025    0.1766 H         1 TYD         0.0959
     34 H9          5.0367   23.8195   -3.0567 H         1 TYD         0.2259
     35 H10         7.7455   19.3878   -1.3631 H         1 TYD         0.0296
     36 H11         7.2967   19.5342   -3.0962 H         1 TYD         0.0296
     37 H12         6.0264   19.2371   -1.8614 H         1 TYD         0.0296
     38 H13         8.2679   21.3895   -0.3341 H         1 TYD         0.1011
@<TRIPOS>BOND
     1    1    2 ar 
     2    1    3 ar 
     3    1    4 1  
     4    1    9 1  
     5    4    5 1  
     6    5    6 ar 
     7    5    7 ar 
     8    5    8 ar 
     9    9   10 1  
    10   10   11 1  
    11   11   12 1  
    12   11   13 1  
    13   12   16 1  
    14   13   14 1  
    15   13   15 1  
    16   15   16 1  
    17   16   17 1  
    18   17   18 am 
    19   17   25 1  
    20   18   19 2  
    21   18   20 am 
    22   20   21 am 
    23   21   22 2  
    24   21   23 1  
    25   23   24 1  
    26   23   25 2  
    27   10   26 1  
    28   10   27 1  
    29   11   28 1  
    30   13   29 1  
    31   14   30 1  
    32   15   31 1  
    33   15   32 1  
    34   16   33 1  
    35   20   34 1  
    36   24   35 1  
    37   24   36 1  
    38   24   37 1  
    39   25   38 1  
@<TRIPOS>SUBSTRUCTURE
     1 TYD         1

