### 
### Created by X-TOOL on Fri Sep 26 17:34:40 2014
### 

@<TRIPOS>MOLECULE
3bf1_ligand
   39    41     1     0     0
SMALL
GAST_HUCK


@<TRIPOS>ATOM
      1 PB          4.0940   15.7490   24.2380 P.3       1 ADP         0.2069
      2 O1B         4.2600   15.2290   22.8310 O.co2     1 ADP        -0.5891
      3 O2B         2.8110   16.5190   24.4500 O.co2     1 ADP        -0.5891
      4 O3B         4.4090   14.7240   25.3090 O.co2     1 ADP        -0.5891
      5 PA          5.6210   17.6790   25.7150 P.3       1 ADP         0.3276
      6 O1A         4.4830   17.5230   26.6930 O.co2     1 ADP        -0.5556
      7 O2A         6.0960   19.0640   25.3410 O.co2     1 ADP        -0.5556
      8 O3A         5.2430   16.8900   24.3510 O.3       1 ADP        -0.1548
      9 O5'         6.8820   16.8350   26.2610 O.3       1 ADP        -0.2436
     10 C5'         8.2060   17.3630   26.2400 C.3       1 ADP         0.1132
     11 C4'         8.4760   18.0270   27.5840 C.3       1 ADP         0.1189
     12 O4'         8.8030   17.0340   28.5570 O.3       1 ADP        -0.3364
     13 C3'         9.6460   18.9900   27.5270 C.3       1 ADP         0.1149
     14 O3'         9.2220   20.2150   28.1400 O.3       1 ADP        -0.3864
     15 C2'        10.7670   18.3080   28.3050 C.3       1 ADP         0.1385
     16 O2'        11.5430   19.2400   29.0740 O.3       1 ADP        -0.3836
     17 C1'        10.0590   17.2880   29.1880 C.3       1 ADP         0.2010
     18 N9         10.7970   16.0040   29.2820 N.pl3     1 ADP        -0.1919
     19 C8         10.6940   14.9900   28.3980 C.2       1 ADP         0.1123
     20 N7         11.4820   13.9430   28.7460 N.2       1 ADP        -0.2958
     21 C5         12.1060   14.2780   29.8880 C.ar      1 ADP         0.1045
     22 C6         13.0870   13.6220   30.7890 C.ar      1 ADP         0.1298
     23 N6         13.5560   12.3750   30.5200 N.pl3     1 ADP        -0.3152
     24 N1         13.4970   14.3180   31.8740 N.ar      1 ADP        -0.2698
     25 C2         13.0430   15.5600   32.1390 C.ar      1 ADP         0.0533
     26 N3         12.1540   16.2160   31.3650 N.ar      1 ADP        -0.2714
     27 C4         11.6540   15.6390   30.2410 C.ar      1 ADP         0.1613
     28 H1          8.2981   18.1050   25.4332 H         1 ADP         0.0648
     29 H2          8.9283   16.5500   26.0748 H         1 ADP         0.0648
     30 H3          7.5726   18.5714   27.8963 H         1 ADP         0.0651
     31 H4          9.9602   19.1786   26.4898 H         1 ADP         0.0648
     32 H5          9.9359   20.8415   28.1199 H         1 ADP         0.2100
     33 H6         11.4418   17.7910   27.6069 H         1 ADP         0.0676
     34 H7         10.9785   19.6819   29.6973 H         1 ADP         0.2101
     35 H8          9.9138   17.7019   30.1967 H         1 ADP         0.0996
     36 H9         10.0572   15.0100   27.5148 H         1 ADP         0.1349
     37 H10        14.2363   11.9327   31.1544 H         1 ADP         0.1820
     38 H11        13.2311   11.8723   29.6818 H         1 ADP         0.1820
     39 H12        13.4142   16.0605   33.0260 H         1 ADP         0.0996
@<TRIPOS>BOND
     1    1    2 ar 
     2    1    3 ar 
     3    1    4 ar 
     4    8    1 1  
     5    5    6 ar 
     6    5    7 ar 
     7    5    8 1  
     8    5    9 1  
     9    9   10 1  
    10   10   11 1  
    11   11   12 1  
    12   11   13 1  
    13   12   17 1  
    14   13   14 1  
    15   13   15 1  
    16   15   16 1  
    17   15   17 1  
    18   17   18 1  
    19   18   19 1  
    20   18   27 1  
    21   19   20 2  
    22   20   21 1  
    23   21   22 ar 
    24   21   27 ar 
    25   22   23 1  
    26   22   24 ar 
    27   24   25 ar 
    28   25   26 ar 
    29   26   27 ar 
    30   10   28 1  
    31   10   29 1  
    32   11   30 1  
    33   13   31 1  
    34   14   32 1  
    35   15   33 1  
    36   16   34 1  
    37   17   35 1  
    38   19   36 1  
    39   23   37 1  
    40   23   38 1  
    41   25   39 1  
@<TRIPOS>SUBSTRUCTURE
     1 ADP         1

