### 
### Created by X-TOOL on Fri Sep 26 17:34:29 2014
### 

@<TRIPOS>MOLECULE
1tx7_ligand
   24    24     1     0     0
SMALL
GAST_HUCK


@<TRIPOS>ATOM
      1 C1         -1.5920   14.6610   50.8870 C.ar      1 MOL         0.0305
      2 O1         -1.1280   10.8900   47.1070 O.co2     1 MOL        -0.6197
      3 C2         -1.8390   13.2410   50.9130 C.ar      1 MOL        -0.0504
      4 O2          0.2370   12.7330   46.1320 O.co2     1 MOL        -0.6197
      5 C3         -1.3640   12.4240   49.8530 C.ar      1 MOL        -0.0399
      6 N1         -1.8340   16.7550   52.0190 N.pl3     1 MOL        -0.2717
      7 N2         -2.7490   14.9590   53.0020 N.pl3     1 MOL        -0.2717
      8 C4         -0.6400   13.0160   48.7520 C.ar      1 MOL         0.0287
      9 C5         -0.4020   14.4620   48.7240 C.ar      1 MOL        -0.0399
     10 C6         -0.8770   15.2620   49.7980 C.ar      1 MOL        -0.0504
     11 C7         -2.0790   15.4950   52.0130 C.cat     1 MOL         0.2380
     12 P1         -0.0360   11.9180   47.4190 P.3       1 MOL         0.0044
     13 C8          1.5150   11.1200   48.0460 C.3       1 MOL         0.0021
     14 H1         -2.3851   12.7986   51.7383 H         1 MOL         0.0629
     15 H2         -1.5448   11.3553   49.8701 H         1 MOL         0.0676
     16 H3         -2.1686   17.3410   52.7971 H         1 MOL         0.3181
     17 H4         -1.3028   17.1800   51.2457 H         1 MOL         0.3181
     18 H5         -2.9479   13.9484   53.0013 H         1 MOL         0.3181
     19 H6         -3.0772   15.5480   53.7807 H         1 MOL         0.3181
     20 H7          0.1294   14.9151   47.8949 H         1 MOL         0.0676
     21 H8         -0.6983   16.3312   49.7945 H         1 MOL         0.0629
     22 H9          1.2903   10.5492   48.9591 H         1 MOL         0.0420
     23 H10         2.2608   11.8961   48.2730 H         1 MOL         0.0420
     24 H11         1.9143   10.4411   47.2781 H         1 MOL         0.0420
@<TRIPOS>BOND
     1    3    1 ar 
     2    1   10 ar 
     3    1   11 1  
     4   12    2 ar 
     5    5    3 ar 
     6   12    4 ar 
     7    8    5 ar 
     8   11    6 ar 
     9   11    7 ar 
    10    8    9 ar 
    11    8   12 1  
    12    9   10 ar 
    13   12   13 1  
    14    3   14 1  
    15    5   15 1  
    16    6   16 1  
    17    6   17 1  
    18    7   18 1  
    19    7   19 1  
    20    9   20 1  
    21   10   21 1  
    22   13   22 1  
    23   13   23 1  
    24   13   24 1  
@<TRIPOS>SUBSTRUCTURE
     1 MOL         1

