### 
### Created by X-TOOL on Fri Sep 26 17:34:11 2014
### 

@<TRIPOS>MOLECULE
8cpa_ligand
   55    56     1     0     0
SMALL
GAST_HUCK


@<TRIPOS>ATOM
      1 C1         46.7100   17.1130   40.5290 C.2       1 AGF         0.3239
      2 CB1        47.9000   18.4490   42.0590 C.3       1 AGF         0.1113
      3 CG1        48.5500   19.7190   42.0950 C.ar      1 AGF        -0.0130
      4 CD11       48.0700   20.7140   42.8680 C.ar      1 AGF        -0.0578
      5 CD12       49.6350   19.9250   41.3260 C.ar      1 AGF        -0.0578
      6 CE11       48.6810   21.9170   42.8770 C.ar      1 AGF        -0.0685
      7 CE12       50.2430   21.1270   41.3340 C.ar      1 AGF        -0.0685
      8 CZ1        49.7670   22.1270   42.1030 C.ar      1 AGF        -0.0687
      9 C2         44.9570   19.1400   38.9360 C.2       1 AGF         0.2026
     10 CA2        45.8600   18.1140   38.4590 C.3       1 AGF         0.1299
     11 CB2        45.3150   17.6400   37.1060 C.3       1 AGF        -0.0244
     12 CA3        44.6690   21.5380   39.2050 C.3       1 AGF         0.1203
     13 C4         44.6070   22.3510   34.8640 C.2       1 AGF         0.0716
     14 CA4        44.8320   23.5220   35.6680 C.3       1 AGF         0.1539
     15 CB4        45.9910   24.1600   34.9060 C.3       1 AGF         0.0245
     16 CG4        45.7090   24.8210   33.6600 C.ar      1 AGF        -0.0385
     17 CD41       45.1190   26.0360   33.6430 C.ar      1 AGF        -0.0601
     18 CD42       46.0030   24.2090   32.4940 C.ar      1 AGF        -0.0601
     19 CE41       44.8530   26.6560   32.4720 C.ar      1 AGF        -0.0686
     20 CE42       45.7290   24.8190   31.3240 C.ar      1 AGF        -0.0686
     21 CZ4        45.1500   26.0400   31.3020 C.ar      1 AGF        -0.0687
     22 O1         46.7610   16.1530   41.2350 O.2       1 AGF        -0.3773
     23 OA1        47.2090   18.2740   40.8520 O.3       1 AGF        -0.2506
     24 O2         43.8560   18.9480   39.3440 O.2       1 AGF        -0.3945
     25 OP31       42.8040   21.8510   37.3320 O.co2     1 AGF        -0.6189
     26 OP32       43.8180   23.8440   38.7850 O.co2     1 AGF        -0.6189
     27 OP33       45.2180   22.9160   36.9320 O.3       1 AGF        -0.2590
     28 O41        45.2630   21.3640   34.9840 O.co2     1 AGF        -0.5659
     29 O42        43.6360   22.4110   33.9860 O.co2     1 AGF        -0.5659
     30 N2         46.1190   17.0230   39.3400 N.am      1 AGF        -0.2413
     31 N3         45.4030   20.4330   38.8030 N.am      1 AGF        -0.2668
     32 P3         44.0300   22.5200   38.0000 P.3       1 AGF         0.1457
     33 H1         47.1871   18.3856   42.8943 H         1 AGF         0.0776
     34 H2         48.6548   17.6552   42.1600 H         1 AGF         0.0776
     35 H3         47.1927   20.5474   43.4826 H         1 AGF         0.0557
     36 H4         50.0186   19.1260   40.7019 H         1 AGF         0.0557
     37 H5         48.3002   22.7142   43.5052 H         1 AGF         0.0599
     38 H6         51.1201   21.2913   40.7186 H         1 AGF         0.0599
     39 H7         50.2542   23.0954   42.0998 H         1 AGF         0.0559
     40 H8         46.8318   18.5983   38.2828 H         1 AGF         0.0796
     41 H9         45.9711   16.8555   36.7009 H         1 AGF         0.0277
     42 H10        45.2824   18.4881   36.4063 H         1 AGF         0.0277
     43 H11        44.3006   17.2363   37.2404 H         1 AGF         0.0277
     44 H12        43.8287   21.1726   39.8135 H         1 AGF         0.0749
     45 H13        45.3270   22.1633   39.8263 H         1 AGF         0.0749
     46 H14        43.9702   24.1978   35.7705 H         1 AGF         0.0854
     47 H15        46.7187   23.3629   34.6938 H         1 AGF         0.0474
     48 H16        46.4479   24.9055   35.5734 H         1 AGF         0.0474
     49 H17        44.8564   26.5183   34.5776 H         1 AGF         0.0557
     50 H18        46.4599   23.2260   32.4984 H         1 AGF         0.0557
     51 H19        44.4037   27.6425   32.4686 H         1 AGF         0.0599
     52 H20        45.9755   24.3253   30.3910 H         1 AGF         0.0599
     53 H21        44.9253   26.5220   30.3574 H         1 AGF         0.0559
     54 H22        45.8323   16.1135   39.0390 H         1 AGF         0.1899
     55 H23        46.3034   20.5845   38.3952 H         1 AGF         0.1868
@<TRIPOS>BOND
     1    1   22 2  
     2    1   23 1  
     3   30    1 am 
     4    2    3 1  
     5   23    2 1  
     6    3    4 ar 
     7    3    5 ar 
     8    4    6 ar 
     9    5    7 ar 
    10    6    8 ar 
    11    7    8 ar 
    12    9   10 1  
    13   10   11 1  
    14   10   30 1  
    15   14   13 1  
    16   14   15 1  
    17   15   16 1  
    18   16   17 ar 
    19   16   18 ar 
    20   17   19 ar 
    21   18   20 ar 
    22   19   21 ar 
    23   20   21 ar 
    24   27   32 1  
    25   32   26 ar 
    26   32   25 ar 
    27   32   12 1  
    28   12   31 1  
    29   31    9 am 
    30   13   29 ar 
    31   13   28 ar 
    32   27   14 1  
    33    9   24 2  
    34    2   33 1  
    35    2   34 1  
    36    4   35 1  
    37    5   36 1  
    38    6   37 1  
    39    7   38 1  
    40    8   39 1  
    41   10   40 1  
    42   11   41 1  
    43   11   42 1  
    44   11   43 1  
    45   12   44 1  
    46   12   45 1  
    47   14   46 1  
    48   15   47 1  
    49   15   48 1  
    50   17   49 1  
    51   18   50 1  
    52   19   51 1  
    53   20   52 1  
    54   21   53 1  
    55   30   54 1  
    56   31   55 1  
@<TRIPOS>SUBSTRUCTURE
     1 AGF         1

