### 
### Created by X-TOOL on Sun Nov 13 14:29:33 2016
### 

@<TRIPOS>MOLECULE
4u71_ligand
   27    27     1     0     0
SMALL
GAST_HUCK


@<TRIPOS>ATOM
      1 O2          2.5960   -3.3340   12.7750 O.co2     1 Q03        -0.5585
      2 P           1.2630   -2.6880   12.8350 P.3       1 Q03         0.1105
      3 O           1.3750   -1.2780   13.6390 O.co2     1 Q03        -0.5585
      4 O1          0.5620   -2.4180   11.4360 O.co2     1 Q03        -0.5585
      5 C           0.1920   -3.6720   13.9460 C.3       1 Q03         0.0470
      6 N          -0.8500   -2.8140   14.4610 N.4       1 Q03         0.2330
      7 C1         -0.2440   -5.0340   13.3540 C.3       1 Q03         0.0177
      8 C6         -1.5950   -4.9630   12.6780 C.3       1 Q03        -0.0437
      9 C5         -1.9170   -6.2640   12.0050 C.3       1 Q03        -0.0526
     10 C4         -1.4160   -7.5060   12.6880 C.3       1 Q03        -0.0530
     11 C3         -0.1040   -7.4430   13.3600 C.3       1 Q03        -0.0526
     12 C2         -0.1220   -6.1940   14.1990 C.3       1 Q03        -0.0437
     13 H1          0.8126   -3.9355   14.8151 H         1 Q03         0.1052
     14 H2         -1.4483   -3.3437   15.0754 H         1 Q03         0.2011
     15 H3         -1.3939   -2.4489   13.6949 H         1 Q03         0.2011
     16 H4         -0.4349   -2.0508   14.9721 H         1 Q03         0.2011
     17 H5          0.4750   -5.2158   12.5416 H         1 Q03         0.0371
     18 H6         -1.5813   -4.1605   11.9258 H         1 Q03         0.0270
     19 H7         -2.3657   -4.7456   13.4321 H         1 Q03         0.0270
     20 H8         -1.4807   -6.2368   10.9956 H         1 Q03         0.0265
     21 H9         -3.0117   -6.3409   11.9294 H         1 Q03         0.0265
     22 H10        -1.3561   -8.2973   11.9262 H         1 Q03         0.0265
     23 H11        -2.1604   -7.7846   13.4484 H         1 Q03         0.0265
     24 H12         0.7038   -7.3905   12.6153 H         1 Q03         0.0265
     25 H13         0.0412   -8.3281   13.9968 H         1 Q03         0.0265
     26 H14        -0.9765   -6.2322   14.8906 H         1 Q03         0.0270
     27 H15         0.8131   -6.1285   14.7746 H         1 Q03         0.0270
@<TRIPOS>BOND
     1    1    2 ar 
     2    2    3 ar 
     3    2    4 ar 
     4    2    5 1  
     5    5    6 1  
     6    5    7 1  
     7    7    8 1  
     8    7   12 1  
     9    8    9 1  
    10    9   10 1  
    11   10   11 1  
    12   11   12 1  
    13    5   13 1  
    14    6   14 1  
    15    6   15 1  
    16    6   16 1  
    17    7   17 1  
    18    8   18 1  
    19    8   19 1  
    20    9   20 1  
    21    9   21 1  
    22   10   22 1  
    23   10   23 1  
    24   11   24 1  
    25   11   25 1  
    26   12   26 1  
    27   12   27 1  
@<TRIPOS>SUBSTRUCTURE
     1 Q03         1

