### 
### Created by X-TOOL on Fri Sep 26 17:34:44 2014
### 

@<TRIPOS>MOLECULE
3k5i_ligand
   31    32     1     0     0
SMALL
GAST_HUCK


@<TRIPOS>ATOM
      1 N1        -22.5420    8.7420   44.9130 N.pl3     1 AIR        -0.2039
      2 C2        -23.4360    8.6950   43.8910 C.2       1 AIR         0.0868
      3 N3        -24.3140    7.6920   43.8960 N.2       1 AIR        -0.3537
      4 C4        -23.8520    7.0000   44.9900 C.2       1 AIR        -0.0153
      5 C5        -22.7520    7.5670   45.5830 C.2       1 AIR         0.1407
      6 N6        -22.1000    7.1250   46.6810 N.pl3     1 AIR        -0.3178
      7 C1'       -21.6450    9.7990   45.3900 C.3       1 AIR         0.1992
      8 C2'       -21.9520   11.1660   44.7920 C.3       1 AIR         0.1386
      9 C3'       -22.7320   11.7760   45.9650 C.3       1 AIR         0.1149
     10 C4'       -21.8770   11.3090   47.1290 C.3       1 AIR         0.1182
     11 O4'       -21.8290    9.9080   46.7720 O.3       1 AIR        -0.3364
     12 O2'       -20.6550   11.7830   44.7510 O.3       1 AIR        -0.3836
     13 O3'       -22.7080   13.2030   45.9470 O.3       1 AIR        -0.3864
     14 C5'       -22.2140   11.6620   48.5650 C.3       1 AIR         0.1072
     15 O5'       -21.8090   10.6380   49.5190 O.3       1 AIR        -0.2734
     16 P         -22.0790   10.8100   51.1170 P.3       1 AIR         0.2008
     17 O6        -21.9460   12.3180   51.6380 O.co2     1 AIR        -0.5537
     18 O7        -21.0710   10.0330   51.9220 O.co2     1 AIR        -0.5537
     19 O8        -23.4480   10.3230   51.5600 O.co2     1 AIR        -0.5537
     20 H1        -23.4353    9.4449   43.1013 H         1 AIR         0.1095
     21 H2        -24.3168    6.0846   45.3533 H         1 AIR         0.0234
     22 H3        -22.3499    6.2167   47.0976 H         1 AIR         0.1736
     23 H4        -21.3532    7.6964   47.1013 H         1 AIR         0.1736
     24 H5        -20.6051    9.5250   45.1587 H         1 AIR         0.0998
     25 H6        -22.4847   11.1668   43.8296 H         1 AIR         0.0676
     26 H7        -23.7666   11.4056   46.0132 H         1 AIR         0.0648
     27 H8        -20.8723   11.7341   46.9883 H         1 AIR         0.0650
     28 H9        -20.7549   12.7195   44.6271 H         1 AIR         0.2101
     29 H10       -21.8129   13.5022   45.8388 H         1 AIR         0.2100
     30 H11       -23.3021   11.8025   48.6442 H         1 AIR         0.0639
     31 H12       -21.7032   12.6014   48.8230 H         1 AIR         0.0639
@<TRIPOS>BOND
     1    1    2 1  
     2    1    5 1  
     3    1    7 1  
     4    2    3 2  
     5    3    4 1  
     6    4    5 2  
     7    5    6 1  
     8    7    8 1  
     9    7   11 1  
    10    8    9 1  
    11    8   12 1  
    12    9   10 1  
    13    9   13 1  
    14   10   11 1  
    15   10   14 1  
    16   14   15 1  
    17   15   16 1  
    18   16   17 ar 
    19   16   18 ar 
    20   16   19 ar 
    21    2   20 1  
    22    4   21 1  
    23    6   22 1  
    24    6   23 1  
    25    7   24 1  
    26    8   25 1  
    27    9   26 1  
    28   10   27 1  
    29   12   28 1  
    30   13   29 1  
    31   14   30 1  
    32   14   31 1  
@<TRIPOS>SUBSTRUCTURE
     1 AIR         1

