### 
### Created by X-TOOL on Sun Nov 13 14:27:15 2016
### 

@<TRIPOS>MOLECULE
4rd6_ligand
   41    43     1     0     0
SMALL
GAST_HUCK


@<TRIPOS>ATOM
      1 PB         -6.9140   30.1520   -4.8180 P.3       1 GDP         0.2069
      2 O1B        -5.5830   29.6520   -5.2790 O.co2     1 GDP        -0.5891
      3 O2B        -7.6330   30.8910   -5.9170 O.co2     1 GDP        -0.5891
      4 O3B        -7.7180   28.9810   -4.2950 O.co2     1 GDP        -0.5891
      5 O3A        -6.7080   31.2250   -3.6260 O.3       1 GDP        -0.1548
      6 PA         -6.8090   30.9900   -2.0410 P.3       1 GDP         0.3276
      7 O1A        -8.2510   30.8930   -1.5870 O.co2     1 GDP        -0.5556
      8 O2A        -5.9370   29.8380   -1.6190 O.co2     1 GDP        -0.5556
      9 O5'        -6.2100   32.3930   -1.5360 O.3       1 GDP        -0.2436
     10 C5'        -4.8360   32.7200   -1.7930 C.3       1 GDP         0.1132
     11 C4'        -4.3580   33.7570   -0.7850 C.3       1 GDP         0.1190
     12 O4'        -5.1440   34.9510   -0.9170 O.3       1 GDP        -0.3347
     13 C3'        -4.5420   33.2540    0.6420 C.3       1 GDP         0.1151
     14 O3'        -3.4130   33.6550    1.4320 O.3       1 GDP        -0.3864
     15 C2'        -5.8000   33.9810    1.0990 C.3       1 GDP         0.1407
     16 O2'        -5.8820   34.1960    2.5120 O.3       1 GDP        -0.3835
     17 C1'        -5.7070   35.2900    0.3360 C.3       1 GDP         0.2218
     18 N9         -7.0490   35.8760    0.1680 N.pl3     1 GDP        -0.0954
     19 C8         -8.1500   35.2590   -0.2980 C.2       1 GDP         0.1855
     20 N7         -9.2050   36.1030   -0.3230 N.2       1 GDP        -0.1929
     21 C5         -8.7750   37.2930    0.1250 C.2       1 GDP         0.2558
     22 C6         -9.3660   38.6210    0.3700 C.2       1 GDP         0.2628
     23 O6        -10.5760   38.8420    0.1310 O.2       1 GDP        -0.3594
     24 N1         -8.5560   39.5780    0.8580 N.am      1 GDP        -0.2478
     25 C2         -7.2520   39.3640    1.1210 C.cat     1 GDP         0.2041
     26 N2         -6.5020   40.3750    1.6070 N.pl3     1 GDP        -0.3327
     27 N3         -6.6490   38.1740    0.9240 N.pl3     1 GDP        -0.1901
     28 C4         -7.3480   37.1310    0.4480 C.2       1 GDP         0.3268
     29 H1         -4.7413   33.1280   -2.8101 H         1 GDP         0.0648
     30 H2         -4.2211   31.8123   -1.7033 H         1 GDP         0.0648
     31 H3         -3.2966   33.9807   -0.9676 H         1 GDP         0.0651
     32 H4         -4.6681   32.1619    0.6799 H         1 GDP         0.0648
     33 H5         -3.5242   33.3431    2.3224 H         1 GDP         0.2100
     34 H6         -6.6918   33.4171    0.7880 H         1 GDP         0.0677
     35 H7         -5.1416   34.7197    2.7950 H         1 GDP         0.2101
     36 H8         -5.0597   36.0028    0.8679 H         1 GDP         0.1021
     37 H9         -8.1862   34.2173   -0.6133 H         1 GDP         0.1823
     38 H10        -8.9375   40.4857    1.0327 H         1 GDP         0.1819
     39 H11        -5.5040   40.2235    1.8119 H         1 GDP         0.1774
     40 H12        -6.9275   41.2982    1.7731 H         1 GDP         0.1774
     41 H13        -5.6478   38.0646    1.1396 H         1 GDP         0.2519
@<TRIPOS>BOND
     1    1    2 ar 
     2    1    3 ar 
     3    1    4 ar 
     4    1    5 1  
     5    5    6 1  
     6    6    7 ar 
     7    6    8 ar 
     8    6    9 1  
     9    9   10 1  
    10   10   11 1  
    11   11   12 1  
    12   11   13 1  
    13   12   17 1  
    14   13   14 1  
    15   13   15 1  
    16   15   16 1  
    17   15   17 1  
    18   17   18 1  
    19   18   19 1  
    20   18   28 1  
    21   19   20 2  
    22   20   21 1  
    23   21   22 1  
    24   21   28 2  
    25   22   23 2  
    26   22   24 am 
    27   24   25 ar 
    28   25   26 ar 
    29   25   27 ar 
    30   27   28 1  
    31   10   29 1  
    32   10   30 1  
    33   11   31 1  
    34   13   32 1  
    35   14   33 1  
    36   15   34 1  
    37   16   35 1  
    38   17   36 1  
    39   19   37 1  
    40   24   38 1  
    41   26   39 1  
    42   26   40 1  
    43   27   41 1  
@<TRIPOS>SUBSTRUCTURE
     1 GDP         1

