### 
### Created by X-TOOL on Sun Nov 13 14:27:37 2016
### 

@<TRIPOS>MOLECULE
5efc_ligand
   45    47     1     0     0
SMALL
GAST_HUCK


@<TRIPOS>ATOM
      1 PG         28.1370   28.9640   24.3620 P.3       1 GTP         0.1879
      2 O1G        28.1960   29.5540   22.9710 O.co2     1 GTP        -0.6091
      3 O2G        26.8530   28.1940   24.5820 O.co2     1 GTP        -0.6091
      4 O3G        28.1930   30.0840   25.3770 O.co2     1 GTP        -0.6091
      5 O3B        29.3910   27.9810   24.6190 O.3       1 GTP        -0.1546
      6 PB         30.0690   27.1160   23.4360 P.3       1 GTP         0.3553
      7 O1B        29.0320   26.2120   22.8090 O.co2     1 GTP        -0.5652
      8 O2B        31.2100   26.2940   23.9940 O.co2     1 GTP        -0.5652
      9 O3A        30.6340   28.1480   22.3240 O.3       1 GTP        -0.1171
     10 PA         31.7820   29.2670   22.5480 P.3       1 GTP         0.3266
     11 O1A        31.5310   30.4050   21.5880 O.co2     1 GTP        -0.5692
     12 O2A        33.1650   28.6950   22.3310 O.co2     1 GTP        -0.5692
     13 O5'        31.6310   29.8310   24.0550 O.3       1 GTP        -0.2441
     14 C5'        32.3550   29.3350   25.1610 C.3       1 GTP         0.1131
     15 C4'        32.4020   30.4100   26.2480 C.3       1 GTP         0.1190
     16 O4'        33.4290   31.3330   25.9250 O.3       1 GTP        -0.3347
     17 C3'        31.1170   31.2160   26.3460 C.3       1 GTP         0.1151
     18 O3'        30.8610   31.4660   27.7080 O.3       1 GTP        -0.3864
     19 C2'        31.4220   32.5460   25.6920 C.3       1 GTP         0.1407
     20 O2'        30.8040   33.5930   26.4120 O.3       1 GTP        -0.3835
     21 C1'        32.9330   32.6550   25.8010 C.3       1 GTP         0.2218
     22 N9         33.5700   33.2840   24.6240 N.pl3     1 GTP        -0.0954
     23 C8         33.2460   33.1340   23.2990 C.2       1 GTP         0.1855
     24 N7         34.1090   33.8660   22.5540 N.2       1 GTP        -0.1929
     25 C5         34.9780   34.4860   23.3880 C.2       1 GTP         0.2558
     26 C6         36.0500   35.3370   23.1650 C.2       1 GTP         0.2628
     27 O6         36.3540   35.6750   22.0190 O.2       1 GTP        -0.3594
     28 N1         36.7680   35.8010   24.2450 N.am      1 GTP        -0.2478
     29 C2         36.4320   35.4190   25.5250 C.cat     1 GTP         0.2041
     30 N2         37.1250   35.8610   26.5710 N.pl3     1 GTP        -0.3327
     31 N3         35.3650   34.5760   25.7360 N.pl3     1 GTP        -0.1901
     32 C4         34.6550   34.1130   24.6820 C.2       1 GTP         0.3268
     33 H1         33.3787   29.0819   24.8482 H         1 GTP         0.0648
     34 H2         31.8585   28.4353   25.5534 H         1 GTP         0.0648
     35 H3         32.6083   29.9313   27.2166 H         1 GTP         0.0651
     36 H4         30.2722   30.7024   25.8637 H         1 GTP         0.0648
     37 H5         31.5847   31.9559   28.0804 H         1 GTP         0.2100
     38 H6         31.0928   32.5631   24.6426 H         1 GTP         0.0677
     39 H7         31.1329   33.6001   27.3032 H         1 GTP         0.2101
     40 H8         33.1876   33.2411   26.6963 H         1 GTP         0.1021
     41 H9         32.4298   32.5267   22.9104 H         1 GTP         0.1823
     42 H10        37.5395   36.4202   24.0986 H         1 GTP         0.1819
     43 H11        36.8635   35.5678   27.5231 H         1 GTP         0.1774
     44 H12        37.9231   36.4964   26.4287 H         1 GTP         0.1774
     45 H13        35.1078   34.2984   26.6939 H         1 GTP         0.2519
@<TRIPOS>BOND
     1    1    2 ar 
     2    1    3 ar 
     3    1    4 ar 
     4    1    5 1  
     5    5    6 1  
     6    6    7 ar 
     7    6    8 ar 
     8    6    9 1  
     9    9   10 1  
    10   10   11 ar 
    11   10   12 ar 
    12   10   13 1  
    13   13   14 1  
    14   14   15 1  
    15   15   16 1  
    16   15   17 1  
    17   16   21 1  
    18   17   18 1  
    19   17   19 1  
    20   19   20 1  
    21   19   21 1  
    22   21   22 1  
    23   22   23 1  
    24   22   32 1  
    25   23   24 2  
    26   24   25 1  
    27   25   26 1  
    28   25   32 2  
    29   26   27 2  
    30   26   28 am 
    31   28   29 ar 
    32   29   30 ar 
    33   29   31 ar 
    34   31   32 1  
    35   14   33 1  
    36   14   34 1  
    37   15   35 1  
    38   17   36 1  
    39   18   37 1  
    40   19   38 1  
    41   20   39 1  
    42   21   40 1  
    43   23   41 1  
    44   28   42 1  
    45   30   43 1  
    46   30   44 1  
    47   31   45 1  
@<TRIPOS>SUBSTRUCTURE
     1 GTP         1

