### 
### Created by X-TOOL on Fri Sep 26 17:34:58 2014
### 

@<TRIPOS>MOLECULE
4gql_ligand
   84    87     1     0     0
SMALL
GAST_HUCK


@<TRIPOS>ATOM
      1 O4         10.1460   26.7400    4.2210 O.2       1 R47        -0.3964
      2 N1          6.8840   22.7070    5.4810 N.2       1 R47        -0.1517
      3 O1          7.9870   23.0080    4.8250 O.3       1 R47        -0.1669
      4 C25         9.2640   26.7970    3.4480 C.2       1 R47         0.1851
      5 C17         8.8340   25.8690    2.4870 C.3       1 R47         0.0781
      6 C16         8.9990   24.4640    3.1280 C.3       1 R47         0.0421
      7 C14         6.6250   24.3890    4.0670 C.2       1 R47        -0.0269
      8 C13         6.0100   23.5500    5.0700 C.2       1 R47         0.0432
      9 C12         4.6030   23.5130    5.5010 C.ar      1 R47        -0.0148
     10 C11         4.2590   22.6740    6.6420 C.ar      1 R47        -0.0544
     11 C10         2.9550   22.6470    7.0260 C.ar      1 R47        -0.0543
     12 C7          1.9340   23.4260    6.2850 C.ar      1 R47        -0.0186
     13 C8          2.3040   24.1550    5.1940 C.ar      1 R47        -0.0543
     14 C9          3.6930   24.2020    4.7850 C.ar      1 R47        -0.0544
     15 C15         7.8790   24.0420    4.0060 C.2       1 R47         0.1412
     16 CL1        -2.7450   25.3810    6.1110 Cl        1 R47        -0.0707
     17 C1         -1.7190   24.1770    6.6720 C.ar      1 R47         0.0409
     18 C2         -0.3420   24.3320    6.2990 C.ar      1 R47        -0.0403
     19 C3         -2.2040   23.1290    7.3170 C.ar      1 R47        -0.0479
     20 C4         -1.3220   22.0820    7.7080 C.ar      1 R47        -0.0609
     21 C5         -0.0260   22.2230    7.4010 C.ar      1 R47        -0.0541
     22 C6          0.5060   23.3710    6.6790 C.ar      1 R47        -0.0179
     23 C18         9.7940   25.9890    1.2450 C.3       1 R47         0.0357
     24 P1          9.2740   25.0130   -0.1960 P.3       1 R47         0.0120
     25 O2          7.7200   25.3100   -0.3910 O.co2     1 R47        -0.6187
     26 O3          9.5670   23.4880   -0.0830 O.co2     1 R47        -0.6187
     27 C19        10.1700   25.7520   -1.5820 C.ar      1 R47         0.0317
     28 C20        11.6230   25.7090   -1.5520 C.ar      1 R47        -0.0373
     29 C21        12.2970   26.2560   -2.6240 C.ar      1 R47        -0.0462
     30 C22        11.5150   26.7850   -3.7890 C.ar      1 R47         0.0175
     31 BR1        12.0680   27.4740   -5.5220 Br        1 R47        -0.0459
     32 C23        10.1990   26.7870   -3.7740 C.ar      1 R47        -0.0462
     33 C24         9.4860   26.2910   -2.6360 C.ar      1 R47        -0.0373
     34 N2          8.5350   27.9660    3.4590 N.am      1 R47        -0.2651
     35 C26         8.8660   29.1170    4.2900 C.3       1 R47         0.1324
     36 C30         8.0420   29.1770    5.5640 C.2       1 R47         0.2040
     37 O7          6.8710   28.7770    5.5850 O.2       1 R47        -0.3944
     38 C27         8.7150   30.4030    3.4740 C.3       1 R47        -0.0008
     39 C28         9.7720   30.5070    2.3870 C.3       1 R47         0.0044
     40 C29         9.6560   31.7680    1.5410 C.2       1 R47         0.0350
     41 O5         10.4800   32.6930    1.7260 O.co2     1 R47        -0.5690
     42 O6          8.7700   31.8180    0.6660 O.co2     1 R47        -0.5690
     43 N3          8.6440   29.6970    6.6270 N.am      1 R47        -0.2636
     44 C31         7.9020   29.9080    7.8630 C.3       1 R47         0.1321
     45 C35         6.7470   30.8490    7.6430 C.2       1 R47         0.1993
     46 O10         5.6190   30.5960    8.0990 O.2       1 R47        -0.3947
     47 C32         8.7980   30.5130    8.9280 C.3       1 R47        -0.0008
     48 C33         9.7270   29.5390    9.5280 C.3       1 R47         0.0044
     49 C34        10.3320   30.0530   10.8070 C.2       1 R47         0.0350
     50 O8         10.6330   29.2260   11.6930 O.co2     1 R47        -0.5690
     51 O9         10.5090   31.2860   10.9140 O.co2     1 R47        -0.5690
     52 N4          7.0390   31.9520    6.9620 N.am      1 R47        -0.2990
     53 H1          7.7895   26.0498    2.1932 H         1 R47         0.0580
     54 H2          9.9207   24.4684    3.7283 H         1 R47         0.0513
     55 H3          9.0933   23.7272    2.3167 H         1 R47         0.0513
     56 H4          6.1350   25.1617    3.4765 H         1 R47         0.0289
     57 H5          5.0124   22.0948    7.1635 H         1 R47         0.0616
     58 H6          2.6592   22.0506    7.8815 H         1 R47         0.0622
     59 H7          1.5563   24.7014    4.6306 H         1 R47         0.0622
     60 H8          3.9945   24.7805    3.9193 H         1 R47         0.0616
     61 H9         -0.0037   25.1923    5.7328 H         1 R47         0.0628
     62 H10        -3.2619   23.0679    7.5455 H         1 R47         0.0622
     63 H11        -1.6849   21.2058    8.2331 H         1 R47         0.0617
     64 H12         0.6624   21.4429    7.7054 H         1 R47         0.0624
     65 H13        10.7950   25.6489    1.5487 H         1 R47         0.0485
     66 H14         9.8410   27.0466    0.9463 H         1 R47         0.0485
     67 H15        12.1560   25.2643   -0.7194 H         1 R47         0.0682
     68 H16        13.3800   26.3029   -2.6243 H         1 R47         0.0655
     69 H17         9.6514   27.1667   -4.6290 H         1 R47         0.0655
     70 H18         8.4035   26.3428   -2.6100 H         1 R47         0.0682
     71 H19         7.7340   28.0284    2.8636 H         1 R47         0.1883
     72 H20         9.9216   29.0237    4.5850 H         1 R47         0.0801
     73 H21         8.8114   31.2665    4.1486 H         1 R47         0.0330
     74 H22         7.7198   30.4130    3.0055 H         1 R47         0.0330
     75 H23         9.6764   29.6341    1.7245 H         1 R47         0.0433
     76 H24        10.7631   30.4985    2.8640 H         1 R47         0.0433
     77 H25         9.6116   29.9451    6.5791 H         1 R47         0.1883
     78 H26         7.5195   28.9389    8.2157 H         1 R47         0.0801
     79 H27         8.1630   30.9270    9.7251 H         1 R47         0.0330
     80 H28         9.3869   31.3219    8.4710 H         1 R47         0.0330
     81 H29        10.5350   29.3304    8.8114 H         1 R47         0.0433
     82 H30         9.1783   28.6101    9.7426 H         1 R47         0.0433
     83 H31         6.3257   32.6273    6.7744 H         1 R47         0.1815
     84 H32         7.9720   32.1068    6.6371 H         1 R47         0.1815
@<TRIPOS>BOND
     1    4    1 2  
     2    2    3 1  
     3    8    2 2  
     4   15    3 1  
     5    5    4 1  
     6    4   34 am 
     7    6    5 1  
     8    5   23 1  
     9   15    6 1  
    10    8    7 1  
    11    7   15 2  
    12    9    8 1  
    13   10    9 ar 
    14   14    9 ar 
    15   11   10 ar 
    16   12   11 ar 
    17   12   13 ar 
    18   22   12 1  
    19   13   14 ar 
    20   17   16 1  
    21   18   17 ar 
    22   17   19 ar 
    23   18   22 ar 
    24   19   20 ar 
    25   20   21 ar 
    26   21   22 ar 
    27   23   24 1  
    28   24   25 ar 
    29   24   26 ar 
    30   24   27 1  
    31   27   28 ar 
    32   27   33 ar 
    33   28   29 ar 
    34   29   30 ar 
    35   30   31 1  
    36   30   32 ar 
    37   32   33 ar 
    38   34   35 1  
    39   35   36 1  
    40   35   38 1  
    41   36   37 2  
    42   36   43 am 
    43   38   39 1  
    44   39   40 1  
    45   40   41 ar 
    46   40   42 ar 
    47   43   44 1  
    48   44   45 1  
    49   44   47 1  
    50   45   46 2  
    51   45   52 am 
    52   47   48 1  
    53   48   49 1  
    54   49   50 ar 
    55   49   51 ar 
    56    5   53 1  
    57    6   54 1  
    58    6   55 1  
    59    7   56 1  
    60   10   57 1  
    61   11   58 1  
    62   13   59 1  
    63   14   60 1  
    64   18   61 1  
    65   19   62 1  
    66   20   63 1  
    67   21   64 1  
    68   23   65 1  
    69   23   66 1  
    70   28   67 1  
    71   29   68 1  
    72   32   69 1  
    73   33   70 1  
    74   34   71 1  
    75   35   72 1  
    76   38   73 1  
    77   38   74 1  
    78   39   75 1  
    79   39   76 1  
    80   43   77 1  
    81   44   78 1  
    82   47   79 1  
    83   47   80 1  
    84   48   81 1  
    85   48   82 1  
    86   52   83 1  
    87   52   84 1  
@<TRIPOS>SUBSTRUCTURE
     1 R47         1

