### 
### Created by X-TOOL on Fri Sep 26 17:34:48 2014
### 

@<TRIPOS>MOLECULE
3i73_ligand
   39    41     1     0     0
SMALL
GAST_HUCK


@<TRIPOS>ATOM
      1 PB        -40.1940    6.9430    0.1730 P.3       1 ADP         0.2069
      2 O1B       -39.0540    6.6400    1.1210 O.co2     1 ADP        -0.5891
      3 O2B       -39.7350    7.6590   -1.0740 O.co2     1 ADP        -0.5891
      4 O3B       -41.1420    5.7910   -0.0790 O.co2     1 ADP        -0.5891
      5 PA        -42.6700    7.6110    1.1530 P.3       1 ADP         0.3276
      6 O1A       -42.6860    6.4740    2.1450 O.co2     1 ADP        -0.5556
      7 O2A       -43.2300    7.3770   -0.2280 O.co2     1 ADP        -0.5556
      8 O3A       -41.1190    8.0000    0.9580 O.3       1 ADP        -0.1548
      9 O5'       -43.3800    8.9400    1.7910 O.3       1 ADP        -0.2436
     10 C5'       -44.7530    9.0130    2.2170 C.3       1 ADP         0.1132
     11 C4'       -45.2650   10.4670    2.1740 C.3       1 ADP         0.1189
     12 O4'       -46.6120   10.6470    1.6660 O.3       1 ADP        -0.3364
     13 C3'       -45.2470   11.2640    3.4700 C.3       1 ADP         0.1149
     14 O3'       -44.0400   11.9760    3.5970 O.3       1 ADP        -0.3864
     15 C2'       -46.3540   12.2640    3.2680 C.3       1 ADP         0.1385
     16 O2'       -45.9710   13.5610    2.8460 O.3       1 ADP        -0.3836
     17 C1'       -46.8960   12.0330    1.8890 C.3       1 ADP         0.2010
     18 N9        -48.2560   12.4410    2.2090 N.pl3     1 ADP        -0.1919
     19 C8        -49.4350   12.1460    1.6740 C.2       1 ADP         0.1123
     20 N7        -50.4320   12.7640    2.3330 N.2       1 ADP        -0.2958
     21 C5        -49.8710   13.4640    3.3110 C.ar      1 ADP         0.1045
     22 C6        -50.3250   14.3380    4.3840 C.ar      1 ADP         0.1298
     23 N6        -51.6280   14.5690    4.5100 N.pl3     1 ADP        -0.3152
     24 N1        -49.3980   14.8830    5.2040 N.ar      1 ADP        -0.2698
     25 C2        -48.0820   14.6500    5.0490 C.ar      1 ADP         0.0533
     26 N3        -47.5820   13.8520    4.0970 N.ar      1 ADP        -0.2714
     27 C4        -48.4280   13.2480    3.2250 C.ar      1 ADP         0.1613
     28 H1        -44.8315    8.6337    3.2465 H         1 ADP         0.0648
     29 H2        -45.3707    8.3937    1.5500 H         1 ADP         0.0648
     30 H3        -44.5845   10.9790    1.4777 H         1 ADP         0.0651
     31 H4        -45.4171   10.6222    4.3470 H         1 ADP         0.0648
     32 H5        -43.9485   12.5751    2.8654 H         1 ADP         0.2100
     33 H6        -47.0715   12.2421    4.1015 H         1 ADP         0.0676
     34 H7        -46.7450   14.1035    2.7517 H         1 ADP         0.2101
     35 H8        -46.4566   12.6520    1.0929 H         1 ADP         0.0996
     36 H9        -49.5762   11.4908    0.8157 H         1 ADP         0.1349
     37 H10       -51.9717   15.1838    5.2615 H         1 ADP         0.1820
     38 H11       -52.2939   14.1332    3.8561 H         1 ADP         0.1820
     39 H12       -47.3907   15.1332    5.7300 H         1 ADP         0.0996
@<TRIPOS>BOND
     1    1    2 ar 
     2    1    3 ar 
     3    1    4 ar 
     4    8    1 1  
     5    5    6 ar 
     6    5    7 ar 
     7    5    8 1  
     8    5    9 1  
     9    9   10 1  
    10   10   11 1  
    11   11   12 1  
    12   11   13 1  
    13   12   17 1  
    14   13   14 1  
    15   13   15 1  
    16   15   16 1  
    17   15   17 1  
    18   17   18 1  
    19   18   19 1  
    20   18   27 1  
    21   19   20 2  
    22   20   21 1  
    23   21   22 ar 
    24   21   27 ar 
    25   22   23 1  
    26   22   24 ar 
    27   24   25 ar 
    28   25   26 ar 
    29   26   27 ar 
    30   10   28 1  
    31   10   29 1  
    32   11   30 1  
    33   13   31 1  
    34   14   32 1  
    35   15   33 1  
    36   16   34 1  
    37   17   35 1  
    38   19   36 1  
    39   23   37 1  
    40   23   38 1  
    41   25   39 1  
@<TRIPOS>SUBSTRUCTURE
     1 ADP         1

