### 
### Created by X-TOOL on Fri Sep 26 17:34:33 2014
### 

@<TRIPOS>MOLECULE
2h3e_ligand
   24    23     1     0     0
SMALL
GAST_HUCK


@<TRIPOS>ATOM
      1 OAH        68.5170   48.0160   63.2800 O.co2     1 MOL        -0.5606
      2 PAP        67.3700   49.1450   63.2550 P.3       1 MOL         0.0776
      3 OAG        66.8110   49.1740   61.7470 O.co2     1 MOL        -0.5606
      4 OAE        66.3130   48.8940   64.2610 O.co2     1 MOL        -0.5606
      5 CAJ        68.2340   50.7140   63.5080 C.3       1 MOL         0.1085
      6 CAN        67.3700   51.9350   63.1790 C.2       1 MOL         0.1949
      7 OAD        66.3690   52.2010   63.8400 O.2       1 MOL        -0.3954
      8 N          67.7930   52.6470   62.1350 N.am      1 MOL        -0.2629
      9 CA         67.1230   53.8720   61.6730 C.3       1 MOL         0.1419
     10 CB         67.9840   54.5670   60.6140 C.3       1 MOL         0.0406
     11 CG         68.2270   53.7110   59.3680 C.2       1 MOL         0.0393
     12 OD2        67.4550   52.7500   59.1600 O.co2     1 MOL        -0.5688
     13 OD1        69.1860   54.0470   58.6400 O.co2     1 MOL        -0.5688
     14 C          65.7190   53.6050   61.1260 C.2       1 MOL         0.2009
     15 O          65.2440   52.4720   61.0900 O.2       1 MOL        -0.3946
     16 NAA        65.0730   54.6890   60.7050 N.am      1 MOL        -0.2989
     17 H1         69.1247   50.7313   62.8628 H         1 MOL         0.0692
     18 H2         68.5432   50.7776   64.5617 H         1 MOL         0.0692
     19 H3         68.6047   52.3334   61.6422 H         1 MOL         0.1884
     20 H4         67.0238   54.5477   62.5353 H         1 MOL         0.0819
     21 H5         68.9576   54.8128   61.0630 H         1 MOL         0.0478
     22 H6         67.4775   55.4938   60.3066 H         1 MOL         0.0478
     23 H7         64.1489   54.6069   60.3318 H         1 MOL         0.1815
     24 H8         65.5115   55.5859   60.7617 H         1 MOL         0.1815
@<TRIPOS>BOND
     1    1    2 ar 
     2    2    3 ar 
     3    2    4 ar 
     4    2    5 1  
     5    5    6 1  
     6    6    7 2  
     7    6    8 am 
     8    8    9 1  
     9    9   10 1  
    10    9   14 1  
    11   10   11 1  
    12   11   12 ar 
    13   11   13 ar 
    14   14   15 2  
    15   14   16 am 
    16    5   17 1  
    17    5   18 1  
    18    8   19 1  
    19    9   20 1  
    20   10   21 1  
    21   10   22 1  
    22   16   23 1  
    23   16   24 1  
@<TRIPOS>SUBSTRUCTURE
     1 MOL         1

