### 
### Created by X-TOOL on Fri Sep 26 17:34:21 2014
### 

@<TRIPOS>MOLECULE
1m7y_ligand
   47    47     1     0     0
SMALL
GAST_HUCK


@<TRIPOS>ATOM
      1 N1         23.2370    2.2760   18.8790 N.ar      1 PPG        -0.3257
      2 C2         22.0730    2.0290   18.1400 C.ar      1 PPG         0.0391
      3 C2A        22.0480    2.6300   16.7730 C.3       1 PPG        -0.0224
      4 C3         21.0520    1.2450   18.7510 C.ar      1 PPG         0.1167
      5 O3         19.9540    0.9980   18.0770 O.3       1 PPG        -0.3347
      6 C4         21.2870    0.7490   20.1240 C.ar      1 PPG         0.0476
      7 C4A        20.2070   -0.1270   20.8680 C.3       1 PPG         0.0039
      8 C5         22.5640    1.0870   20.7910 C.ar      1 PPG         0.0057
      9 C6         23.5040    1.8410   20.1460 C.ar      1 PPG        -0.0130
     10 C5A        22.7960    0.5630   22.2090 C.3       1 PPG         0.1105
     11 OP4        23.1110   -0.8190   22.1390 O.3       1 PPG        -0.2651
     12 P          24.0800   -1.5320   23.2440 P.3       1 PPG         0.2035
     13 OP1        25.2680   -1.9890   22.4650 O.co2     1 PPG        -0.5536
     14 OP2        23.3690   -2.6690   23.8070 O.co2     1 PPG        -0.5536
     15 OP3        24.4090   -0.5470   24.2940 O.co2     1 PPG        -0.5536
     16 N4A        18.8790    0.0800   20.3520 N.4       1 PPG         0.2588
     17 CAI        17.7230   -0.0800   21.0240 C.3       1 PPG         0.0437
     18 CBC        16.5550    0.0900   20.2560 C.2       1 PPG         0.0903
     19 O2B        16.6430    0.7530   19.1500 O.co2     1 PPG        -0.5626
     20 O3B        15.4000   -0.4010   20.6440 O.co2     1 PPG        -0.5626
     21 CBI        17.7250   -0.3570   22.4510 C.2       1 PPG        -0.0188
     22 CGI        16.8160   -1.1250   23.0540 C.2       1 PPG         0.0424
     23 OET        17.0180   -1.3310   24.4750 O.3       1 PPG        -0.3316
     24 CEI        15.7600   -1.4200   25.1710 C.3       1 PPG         0.1065
     25 CFI        15.5090   -2.8490   25.6690 C.3       1 PPG        -0.0071
     26 NI         15.3360   -3.7370   24.5200 N.4       1 PPG         0.2204
     27 H1         21.0975    2.3790   16.2795 H         1 PPG         0.0382
     28 H2         22.8849    2.2305   16.1814 H         1 PPG         0.0382
     29 H3         22.1430    3.7231   16.8512 H         1 PPG         0.0382
     30 H4         19.3704    0.4686   18.6076 H         1 PPG         0.2454
     31 H5         20.2152    0.1350   21.9363 H         1 PPG         0.0963
     32 H6         20.4704   -1.1883   20.7487 H         1 PPG         0.0963
     33 H7         24.4419    2.0886   20.6299 H         1 PPG         0.0621
     34 H8         21.8853    0.7048   22.8094 H         1 PPG         0.0762
     35 H9         23.6301    1.1094   22.6734 H         1 PPG         0.0762
     36 H10        18.8076   -0.5371   19.5582 H         1 PPG         0.2052
     37 H11        18.8674    1.0370   20.0358 H         1 PPG         0.2052
     38 H12        17.7197   -1.1608   20.8194 H         1 PPG         0.1113
     39 H13        18.5109    0.0863   23.0607 H         1 PPG         0.0405
     40 H14        15.9791   -1.5672   22.5155 H         1 PPG         0.0859
     41 H15        14.9489   -1.1294   24.4872 H         1 PPG         0.0666
     42 H16        15.7760   -0.7362   26.0325 H         1 PPG         0.0666
     43 H17        14.6002   -2.8681   26.2884 H         1 PPG         0.0840
     44 H18        16.3681   -3.1858   26.2678 H         1 PPG         0.0840
     45 H19        15.1708   -4.6772   24.8439 H         1 PPG         0.1995
     46 H20        16.1690   -3.7186   23.9527 H         1 PPG         0.1995
     47 H21        14.5490   -3.4274   23.9716 H         1 PPG         0.1995
@<TRIPOS>BOND
     1    1    2 ar 
     2    1    9 ar 
     3    2    3 1  
     4    2    4 ar 
     5    4    5 1  
     6    4    6 ar 
     7    6    7 1  
     8    6    8 ar 
     9    7   16 1  
    10    8    9 ar 
    11    8   10 1  
    12   10   11 1  
    13   11   12 1  
    14   12   13 ar 
    15   12   14 ar 
    16   12   15 ar 
    17   16   17 1  
    18   17   18 1  
    19   17   21 1  
    20   18   19 ar 
    21   18   20 ar 
    22   21   22 2  
    23   22   23 1  
    24   23   24 1  
    25   24   25 1  
    26   25   26 1  
    27    3   27 1  
    28    3   28 1  
    29    3   29 1  
    30    5   30 1  
    31    7   31 1  
    32    7   32 1  
    33    9   33 1  
    34   10   34 1  
    35   10   35 1  
    36   16   36 1  
    37   16   37 1  
    38   17   38 1  
    39   21   39 1  
    40   22   40 1  
    41   24   41 1  
    42   24   42 1  
    43   25   43 1  
    44   25   44 1  
    45   26   45 1  
    46   26   46 1  
    47   26   47 1  
@<TRIPOS>SUBSTRUCTURE
     1 PPG         1

