### 
### Created by X-TOOL on Fri Sep 26 17:34:20 2014
### 

@<TRIPOS>MOLECULE
1h0a_ligand
   33    33     1     0     0
SMALL
GAST_HUCK


@<TRIPOS>ATOM
      1 C1         24.2490   33.7590    2.6630 C.3       1 I3P         0.1460
      2 C2         25.2730   34.2920    3.6720 C.3       1 I3P         0.1168
      3 C3         24.5950   35.1830    4.6990 C.3       1 I3P         0.1172
      4 C4         23.4780   34.4220    5.3690 C.3       1 I3P         0.1503
      5 C5         22.5040   33.8070    4.4240 C.3       1 I3P         0.1506
      6 C6         23.1010   32.9800    3.2340 C.3       1 I3P         0.1215
      7 O1         24.8500   32.8300    1.6700 O.3       1 I3P        -0.2676
      8 O2         26.0520   33.2780    4.3490 O.3       1 I3P        -0.3861
      9 O3         25.6250   35.6510    5.5670 O.3       1 I3P        -0.3861
     10 O4         22.7360   35.2870    6.1890 O.3       1 I3P        -0.2672
     11 O5         21.6280   32.9670    5.2160 O.3       1 I3P        -0.2672
     12 O6         22.1450   32.4590    2.2800 O.3       1 I3P        -0.3858
     13 P1         25.3570   33.6030    0.2980 P.3       1 I3P         0.2013
     14 O11        24.1360   33.9980   -0.3600 O.co2     1 I3P        -0.5537
     15 O12        26.0320   32.4330   -0.3300 O.co2     1 I3P        -0.5537
     16 O13        26.2130   34.6960    0.5730 O.co2     1 I3P        -0.5537
     17 P4         23.0350   35.7650    7.6950 P.3       1 I3P         0.2013
     18 O41        23.4940   34.4880    8.5010 O.co2     1 I3P        -0.5537
     19 O42        24.1780   36.7050    7.6620 O.co2     1 I3P        -0.5537
     20 O43        21.7350   36.2440    8.0820 O.co2     1 I3P        -0.5537
     21 P5         20.0800   32.8440    5.0820 P.3       1 I3P         0.2013
     22 O51        19.5310   31.6730    5.8560 O.co2     1 I3P        -0.5537
     23 O52        19.7600   32.3010    3.6930 O.co2     1 I3P        -0.5537
     24 O53        19.3980   34.1230    5.4990 O.co2     1 I3P        -0.5537
     25 H1         23.8435   34.6345    2.1348 H         1 I3P         0.0703
     26 H2         25.9818   34.9130    3.1045 H         1 I3P         0.0650
     27 H3         24.1495   36.0522    4.1930 H         1 I3P         0.0650
     28 H4         23.9271   33.6263    5.9815 H         1 I3P         0.0706
     29 H5         21.9123   34.6221    3.9819 H         1 I3P         0.0706
     30 H6         23.5459   32.0819    3.6874 H         1 I3P         0.0654
     31 H7         26.6568   33.6947    4.9515 H         1 I3P         0.2100
     32 H8         25.2462   36.2159    6.2303 H         1 I3P         0.2100
     33 H9         21.5379   31.8800    2.7257 H         1 I3P         0.2100
@<TRIPOS>BOND
     1    1    7 1  
     2    1    6 1  
     3    1    2 1  
     4    2    8 1  
     5    2    3 1  
     6    3    9 1  
     7    3    4 1  
     8    4   10 1  
     9    4    5 1  
    10    5   11 1  
    11    6    5 1  
    12    6   12 1  
    13   11   21 1  
    14   21   24 ar 
    15   21   23 ar 
    16   21   22 ar 
    17   10   17 1  
    18   17   20 ar 
    19   17   19 ar 
    20   17   18 ar 
    21    7   13 1  
    22   13   16 ar 
    23   13   15 ar 
    24   13   14 ar 
    25    1   25 1  
    26    2   26 1  
    27    3   27 1  
    28    4   28 1  
    29    5   29 1  
    30    6   30 1  
    31    8   31 1  
    32    9   32 1  
    33   12   33 1  
@<TRIPOS>SUBSTRUCTURE
     1 I3P         1

