REMARK  9 active torsions:
REMARK  status: ('A' for Active; 'I' for Inactive)
REMARK    1  A    between atoms: C2_2  and  C6_6 
REMARK    2  A    between atoms: C3_3  and  O20_16 
REMARK    3  A    between atoms: C5_5  and  C9_9 
REMARK    4  A    between atoms: O20_16  and  C21_17 
REMARK    5  A    between atoms: C21_17  and  C22_18 
REMARK    6  A    between atoms: N29_21  and  C30_22 
REMARK    7  A    between atoms: N33_25  and  S46_28 
REMARK    8  A    between atoms: S46_28  and  C49_31 
REMARK    9  A    between atoms: C49_31  and  C50_32 
ROOT
ATOM      1  C9  MOL d          46.125  11.905   1.129  0.00  0.00    -0.015 A 
ATOM      2  C10 MOL d          47.442  11.315   1.310  0.00  0.00     0.042 A 
ATOM      3  C11 MOL d          47.640   9.946   0.942  0.00  0.00     0.029 A 
ATOM      4  C12 MOL d          46.539   9.168   0.378  0.00  0.00     0.029 A 
ATOM      5  C13 MOL d          45.223   9.750   0.179  0.00  0.00     0.003 A 
ATOM      6  C14 MOL d          45.042  11.127   0.539  0.00  0.00     0.013 A 
ATOM      7  N29 MOL d          48.904   9.496   1.163  0.00  0.00    -0.385 N 
ATOM      8  H7  MOL d          49.687  10.159   1.075  0.00  0.00     0.160 HD
ENDROOT
BRANCH   7   9
ATOM      9  C30 MOL d          49.190   8.138   1.513  0.00  0.00     0.084 C 
ATOM     10  C31 MOL d          50.709   7.984   1.598  0.00  0.00     0.045 C 
ATOM     11  C32 MOL d          51.146   6.638   2.128  0.00  0.00     0.137 C 
ATOM     12  N33 MOL d          50.391   6.389   3.357  0.00  0.00    -0.310 N 
ATOM     13  C34 MOL d          48.927   6.440   3.373  0.00  0.00     0.137 C 
ATOM     14  C35 MOL d          48.499   7.777   2.826  0.00  0.00     0.045 C 
BRANCH  12  15
ATOM     15  S46 MOL d          51.102   5.446   4.591  0.00  0.00     0.232 S 
ATOM     16  O47 MOL d          50.221   5.567   5.730  0.00  0.00    -0.205 OA
ATOM     17  O48 MOL d          52.479   5.892   4.694  0.00  0.00    -0.205 OA
BRANCH  15  18
ATOM     18  C49 MOL d          50.896   3.776   3.933  0.00  0.00     0.201 C 
BRANCH  18  19
ATOM     19  C50 MOL d          51.257   2.789   5.002  0.00  0.00    -0.043 A 
ATOM     20  C53 MOL d          52.663   2.458   5.126  0.00  0.00     0.008 A 
ATOM     21  C54 MOL d          53.048   1.595   6.222  0.00  0.00     0.001 A 
ATOM     22  C55 MOL d          52.025   1.064   7.121  0.00  0.00     0.000 A 
ATOM     23  C56 MOL d          50.623   1.416   6.991  0.00  0.00     0.001 A 
ATOM     24  C57 MOL d          50.215   2.291   5.905  0.00  0.00     0.008 A 
ENDBRANCH  18  19
ENDBRANCH  15  18
ENDBRANCH  12  15
ENDBRANCH   7   9
BRANCH   1  25
ATOM     25  C5  MOL d          45.821  13.287   1.552  0.00  0.00     0.036 A 
ATOM     26  S1  MOL d          44.564  14.239   0.674  0.00  0.00    -0.078 SA
ATOM     27  C2  MOL d          44.766  15.649   1.756  0.00  0.00     0.117 A 
ATOM     28  C3  MOL d          45.690  15.396   2.667  0.00  0.00     0.112 A 
ATOM     29  C4  MOL d          46.255  14.041   2.574  0.00  0.00     0.064 A 
ATOM     30 BR19 MOL d          47.389  13.484   3.942  0.00  0.00    -0.047 Br
BRANCH  27  31
ATOM     31  C6  MOL d          44.060  16.879   1.469  0.00  0.00     0.219 C 
ATOM     32  O7  MOL d          43.598  16.893   0.308  0.00  0.00    -0.643 OA
ATOM     33  O8  MOL d          43.934  17.823   2.280  0.00  0.00    -0.643 OA
ENDBRANCH  27  31
BRANCH  28  34
ATOM     34  O20 MOL d          45.980  16.284   3.607  0.00  0.00    -0.338 OA
BRANCH  34  35
ATOM     35  C21 MOL d          47.193  16.988   3.438  0.00  0.00     0.288 C 
BRANCH  35  36
ATOM     36  C22 MOL d          47.432  17.689   4.700  0.00  0.00     0.198 C 
ATOM     37  O25 MOL d          48.578  18.151   4.851  0.00  0.00    -0.646 OA
ATOM     38  O26 MOL d          46.511  17.793   5.542  0.00  0.00    -0.646 OA
ENDBRANCH  35  36
ENDBRANCH  34  35
ENDBRANCH  28  34
ENDBRANCH   1  25
TORSDOF 9
