### 
### Created by X-TOOL on Sun Nov 13 14:27:42 2016
### 

@<TRIPOS>MOLECULE
4wop_ligand
   41    42     1     0     0
SMALL
GAST_HUCK


@<TRIPOS>ATOM
      1 N1         14.1930   36.7950  -24.3360 N.am      1 CTP        -0.1467
      2 C2         12.9200   37.3140  -24.4510 C.2       1 CTP         0.3488
      3 N3         11.8310   36.5280  -24.1490 N.am      1 CTP        -0.1924
      4 C4         11.9800   35.1580  -24.1690 C.2       1 CTP         0.0853
      5 C5         13.2530   34.6080  -24.3110 C.2       1 CTP         0.0019
      6 C6         14.3640   35.4410  -24.3540 C.2       1 CTP         0.0739
      7 O2         12.7670   38.4750  -24.8270 O.2       1 CTP        -0.3777
      8 N4         10.9100   34.3740  -24.0510 N.2       1 CTP        -0.4291
      9 C1'        15.3450   37.7040  -24.5430 C.3       1 CTP         0.2109
     10 C2'        16.0110   38.0300  -23.2150 C.3       1 CTP         0.1399
     11 O2'        15.5620   39.2410  -22.6630 O.3       1 CTP        -0.3835
     12 C3'        17.4890   38.0760  -23.5410 C.3       1 CTP         0.1150
     13 C4'        17.6130   37.2060  -24.7840 C.3       1 CTP         0.1190
     14 O4'        16.3270   37.0960  -25.3630 O.3       1 CTP        -0.3353
     15 O3'        17.9230   39.3970  -23.7910 O.3       1 CTP        -0.3864
     16 C5'        18.1120   35.8030  -24.4400 C.3       1 CTP         0.1131
     17 O5'        17.5840   35.4210  -23.1790 O.3       1 CTP        -0.2441
     18 PA         18.5380   35.0270  -21.9390 P.3       1 CTP         0.3266
     19 O1A        19.3180   36.2080  -21.4070 O.co2     1 CTP        -0.5692
     20 O2A        17.6850   34.4200  -20.8560 O.co2     1 CTP        -0.5692
     21 O3A        19.5540   34.0040  -22.6520 O.3       1 CTP        -0.1171
     22 PB         20.4840   33.0260  -21.7980 P.3       1 CTP         0.3553
     23 O1B        20.2000   31.6090  -22.2580 O.co2     1 CTP        -0.5652
     24 O2B        20.1670   33.2330  -20.3340 O.co2     1 CTP        -0.5652
     25 O3B        22.0080   33.4610  -22.1760 O.3       1 CTP        -0.1546
     26 PG         23.2580   33.5420  -21.1440 P.3       1 CTP         0.1879
     27 O1G        24.1200   34.7150  -21.5330 O.co2     1 CTP        -0.6091
     28 O2G        24.1130   32.2980  -21.2300 O.co2     1 CTP        -0.6091
     29 O3G        22.7730   33.7810  -19.7240 O.co2     1 CTP        -0.6091
     30 H1         10.9502   36.9424  -23.9199 H         1 CTP         0.2412
     31 H2         13.3762   33.5287  -24.3880 H         1 CTP         0.0330
     32 H3         15.3655   35.0161  -24.4018 H         1 CTP         0.1288
     33 H4         11.0156   33.3716  -24.0652 H         1 CTP         0.0340
     34 H5         14.9890   38.6304  -25.0173 H         1 CTP         0.1013
     35 H6         15.8108   37.2259  -22.4916 H         1 CTP         0.0677
     36 H7         15.7509   39.9514  -23.2649 H         1 CTP         0.2101
     37 H8         18.0798   37.6548  -22.7143 H         1 CTP         0.0648
     38 H9         18.3089   37.6766  -25.4941 H         1 CTP         0.0651
     39 H10        17.8337   39.9138  -22.9988 H         1 CTP         0.2100
     40 H11        19.2111   35.8032  -24.3948 H         1 CTP         0.0648
     41 H12        17.7768   35.0931  -25.2105 H         1 CTP         0.0648
@<TRIPOS>BOND
     1    1    2 am 
     2    1    6 1  
     3    1    9 1  
     4    2    3 am 
     5    2    7 2  
     6    3    4 1  
     7    4    5 1  
     8    4    8 2  
     9    5    6 2  
    10    9   10 1  
    11    9   14 1  
    12   10   11 1  
    13   10   12 1  
    14   12   13 1  
    15   12   15 1  
    16   13   14 1  
    17   13   16 1  
    18   16   17 1  
    19   17   18 1  
    20   18   19 ar 
    21   18   20 ar 
    22   18   21 1  
    23   21   22 1  
    24   22   23 ar 
    25   22   24 ar 
    26   22   25 1  
    27   25   26 1  
    28   26   27 ar 
    29   26   28 ar 
    30   26   29 ar 
    31    3   30 1  
    32    5   31 1  
    33    6   32 1  
    34    8   33 1  
    35    9   34 1  
    36   10   35 1  
    37   11   36 1  
    38   12   37 1  
    39   13   38 1  
    40   15   39 1  
    41   16   40 1  
    42   16   41 1  
@<TRIPOS>SUBSTRUCTURE
     1 CTP         1

