### 
### Created by X-TOOL on Sat Nov 28 16:07:42 2015
### 

@<TRIPOS>MOLECULE
4nxv_ligand
   41    43     1     0     0
SMALL
GAST_HUCK


@<TRIPOS>ATOM
      1 PB         -4.7470  -27.1360  -11.5440 P.3       1 GDP         0.2069
      2 O1B        -5.2720  -25.7330  -11.3640 O.co2     1 GDP        -0.5891
      3 O2B        -3.9280  -27.2000  -12.8130 O.co2     1 GDP        -0.5891
      4 O3B        -5.8990  -28.0860  -11.6510 O.co2     1 GDP        -0.5891
      5 O3A        -3.8530  -27.4840  -10.3090 O.3       1 GDP        -0.1548
      6 PA         -4.2780  -28.5960   -9.2920 P.3       1 GDP         0.3276
      7 O1A        -3.1380  -28.8510   -8.3230 O.co2     1 GDP        -0.5556
      8 O2A        -5.5100  -28.1440   -8.5300 O.co2     1 GDP        -0.5556
      9 O5'        -4.5950  -29.9050  -10.1050 O.3       1 GDP        -0.2436
     10 C5'        -5.0650  -31.0740   -9.5000 C.3       1 GDP         0.1132
     11 C4'        -5.0420  -32.1430  -10.5720 C.3       1 GDP         0.1190
     12 O4'        -4.0850  -33.1260  -10.2690 O.3       1 GDP        -0.3347
     13 C3'        -6.3790  -32.7940  -10.7620 C.3       1 GDP         0.1151
     14 O3'        -6.5810  -33.2240  -12.0640 O.3       1 GDP        -0.3864
     15 C2'        -6.2430  -33.8910   -9.7680 C.3       1 GDP         0.1407
     16 O2'        -7.0590  -34.9670  -10.0670 O.3       1 GDP        -0.3835
     17 C1'        -4.7750  -34.2510   -9.8010 C.3       1 GDP         0.2218
     18 N9         -4.2410  -34.6990   -8.5180 N.pl3     1 GDP        -0.0954
     19 C8         -3.2870  -35.6380   -8.3540 C.2       1 GDP         0.1855
     20 N7         -3.0280  -35.7940   -7.0650 N.2       1 GDP        -0.1929
     21 C5         -3.7960  -34.9620   -6.3600 C.2       1 GDP         0.2558
     22 C6         -3.9570  -34.6850   -4.9680 C.2       1 GDP         0.2628
     23 O6         -3.2900  -35.2870   -4.1370 O.2       1 GDP        -0.3594
     24 N1         -4.8850  -33.7220   -4.5790 N.am      1 GDP        -0.2478
     25 C2         -5.7030  -32.9740   -5.5030 C.cat     1 GDP         0.2041
     26 N2         -6.6620  -31.9660   -5.0420 N.pl3     1 GDP        -0.3327
     27 N3         -5.5580  -33.2230   -6.8020 N.pl3     1 GDP        -0.1901
     28 C4         -4.5890  -34.2390   -7.2740 C.2       1 GDP         0.3268
     29 H          -6.0906  -30.9265   -9.1306 H         1 GDP         0.0648
     30 H          -4.4112  -31.3595   -8.6627 H         1 GDP         0.0648
     31 H          -4.7590  -31.6625  -11.5202 H         1 GDP         0.0651
     32 H          -7.1995  -32.1139  -10.4897 H         1 GDP         0.0648
     33 H          -7.4381  -33.6277  -12.1336 H         1 GDP         0.2100
     34 H          -6.5122  -33.5226   -8.7671 H         1 GDP         0.0677
     35 H          -7.9656  -34.6833  -10.0736 H         1 GDP         0.2101
     36 H          -4.6396  -35.0735  -10.5187 H         1 GDP         0.1021
     37 H          -2.8023  -36.1858   -9.1608 H         1 GDP         0.1823
     38 H          -4.9907  -33.5381   -3.6018 H         1 GDP         0.1819
     39 H          -7.2325  -31.4476   -5.7251 H         1 GDP         0.1774
     40 H          -6.7654  -31.7761   -4.0350 H         1 GDP         0.1774
     41 H          -6.1257  -32.7036   -7.4867 H         1 GDP         0.2519
@<TRIPOS>BOND
     1    1    2 ar 
     2    1    3 ar 
     3    1    4 ar 
     4    1    5 1  
     5    5    6 1  
     6    6    7 ar 
     7    6    8 ar 
     8    6    9 1  
     9    9   10 1  
    10   10   11 1  
    11   11   12 1  
    12   11   13 1  
    13   12   17 1  
    14   13   14 1  
    15   13   15 1  
    16   15   16 1  
    17   15   17 1  
    18   17   18 1  
    19   18   19 1  
    20   18   28 1  
    21   19   20 2  
    22   20   21 1  
    23   21   22 1  
    24   21   28 2  
    25   22   23 2  
    26   22   24 am 
    27   24   25 ar 
    28   25   26 ar 
    29   25   27 ar 
    30   27   28 1  
    31   10   29 1  
    32   10   30 1  
    33   11   31 1  
    34   13   32 1  
    35   14   33 1  
    36   15   34 1  
    37   16   35 1  
    38   17   36 1  
    39   19   37 1  
    40   24   38 1  
    41   26   39 1  
    42   26   40 1  
    43   27   41 1  
@<TRIPOS>SUBSTRUCTURE
     1 GDP         1

