### 
### Created by X-TOOL on Fri Sep 26 17:34:27 2014
### 

@<TRIPOS>MOLECULE
2bet_ligand
   19    18     1     0     0
SMALL
GAST_HUCK


@<TRIPOS>ATOM
      1 OH2        24.1070   -8.3050   13.5310 O.co2     1 DEZ        -0.5663
      2 C1         25.0340   -7.6120   14.0020 C.2       1 DEZ         0.0660
      3 OH1        24.8490   -6.4650   14.4670 O.co2     1 DEZ        -0.5663
      4 C2         26.4250   -8.1840   14.0110 C.3       1 DEZ         0.1354
      5 O2         26.7170   -8.7520   12.7400 O.3       1 DEZ        -0.3750
      6 C3         26.5450   -9.2500   15.1010 C.3       1 DEZ         0.1202
      7 O3         26.3880   -8.6390   16.3760 O.3       1 DEZ        -0.3849
      8 C4         27.8900   -9.9740   15.0320 C.3       1 DEZ         0.1083
      9 O4         28.0860  -10.7870   16.1950 O.3       1 DEZ        -0.2733
     10 P          29.0650  -12.0680   16.1970 P.3       1 DEZ         0.2008
     11 O1P        30.4360  -11.5360   16.5150 O.co2     1 DEZ        -0.5537
     12 O2P        28.9700  -12.6380   14.8070 O.co2     1 DEZ        -0.5537
     13 O3P        28.4780  -12.9540   17.2640 O.co2     1 DEZ        -0.5537
     14 H1         27.1440   -7.3776   14.2180 H         1 DEZ         0.0791
     15 H2         26.0926   -9.4429   12.5522 H         1 DEZ         0.2125
     16 H3         25.7432   -9.9895   14.9586 H         1 DEZ         0.0664
     17 H4         26.4623   -9.3002   17.0541 H         1 DEZ         0.2102
     18 H5         28.6981   -9.2302   14.9707 H         1 DEZ         0.0640
     19 H6         27.9110  -10.6129   14.1368 H         1 DEZ         0.0640
@<TRIPOS>BOND
     1    1    2 ar 
     2    2    3 ar 
     3    2    4 1  
     4    4    5 1  
     5    4    6 1  
     6    6    7 1  
     7    6    8 1  
     8    8    9 1  
     9    9   10 1  
    10   10   11 ar 
    11   10   12 ar 
    12   10   13 ar 
    13    4   14 1  
    14    5   15 1  
    15    6   16 1  
    16    7   17 1  
    17    8   18 1  
    18    8   19 1  
@<TRIPOS>SUBSTRUCTURE
     1 DEZ         1

