### 
### Created by X-TOOL on Sun Nov 13 14:29:26 2016
### 

@<TRIPOS>MOLECULE
4u6z_ligand
   26    25     1     0     0
SMALL
GAST_HUCK


@<TRIPOS>ATOM
      1 O2         21.8290   -2.2160   12.0950 O.co2     1 Q07        -0.5585
      2 P          21.2380   -2.4930   10.7310 P.3       1 Q07         0.1105
      3 O          19.8900   -3.2450   10.9220 O.co2     1 Q07        -0.5585
      4 O1         21.0290   -1.3930    9.9600 O.co2     1 Q07        -0.5585
      5 C5         22.3770   -3.6270    9.8660 C.3       1 Q07         0.0467
      6 N          23.5770   -2.9960    9.3980 N.4       1 Q07         0.2330
      7 C3         22.7210   -4.8040   10.7450 C.3       1 Q07         0.0148
      8 C4         23.7300   -4.4590   11.7990 C.3       1 Q07        -0.0558
      9 C2         23.1100   -6.0400    9.9860 C.3       1 Q07        -0.0442
     10 C1         23.0310   -7.2790   10.8580 C.3       1 Q07        -0.0554
     11 C          23.0750   -8.5750   10.0950 C.3       1 Q07        -0.0653
     12 H1         21.8444   -4.0096    8.9828 H         1 Q07         0.1052
     13 H2         24.1557   -3.6778    8.9329 H         1 Q07         0.2011
     14 H3         24.0792   -2.6069   10.1806 H         1 Q07         0.2011
     15 H4         23.3395   -2.2599    8.7516 H         1 Q07         0.2011
     16 H5         21.7939   -5.0582   11.2797 H         1 Q07         0.0368
     17 H6         23.9430   -5.3498   12.4082 H         1 Q07         0.0235
     18 H7         23.3300   -3.6617   12.4426 H         1 Q07         0.0235
     19 H8         24.6574   -4.1125   11.3195 H         1 Q07         0.0235
     20 H9         24.1415   -5.9253    9.6215 H         1 Q07         0.0270
     21 H10        22.4300   -6.1621    9.1300 H         1 Q07         0.0270
     22 H11        22.0879   -7.2434   11.4230 H         1 Q07         0.0263
     23 H12        23.8790   -7.2623   11.5584 H         1 Q07         0.0263
     24 H13        23.0128   -9.4175   10.7995 H         1 Q07         0.0230
     25 H14        24.0177   -8.6370    9.5316 H         1 Q07         0.0230
     26 H15        22.2266   -8.6181    9.3962 H         1 Q07         0.0230
@<TRIPOS>BOND
     1    1    2 ar 
     2    2    3 ar 
     3    2    4 ar 
     4    2    5 1  
     5    5    6 1  
     6    5    7 1  
     7    7    8 1  
     8    7    9 1  
     9    9   10 1  
    10   10   11 1  
    11    5   12 1  
    12    6   13 1  
    13    6   14 1  
    14    6   15 1  
    15    7   16 1  
    16    8   17 1  
    17    8   18 1  
    18    8   19 1  
    19    9   20 1  
    20    9   21 1  
    21   10   22 1  
    22   10   23 1  
    23   11   24 1  
    24   11   25 1  
    25   11   26 1  
@<TRIPOS>SUBSTRUCTURE
     1 Q07         1

