### 
### Created by X-TOOL on Fri Sep 26 17:34:49 2014
### 

@<TRIPOS>MOLECULE
3ujc_ligand
   24    23     1     0     0
SMALL
GAST_HUCK


@<TRIPOS>ATOM
      1 P1         15.4280   10.4780   19.9340 P.3       1 PC          0.2009
      2 O1         16.0360    9.8890   21.1940 O.co2     1 PC         -0.5537
      3 O3         15.1380    9.3830   18.9210 O.co2     1 PC         -0.5537
      4 O4         14.2150   11.3450   20.2000 O.co2     1 PC         -0.5537
      5 O2         16.5800   11.3850   19.3450 O.3       1 PC         -0.2708
      6 C1         16.2910   12.2560   18.2430 C.3       1 PC          0.1181
      7 C2         17.4710   13.1420   17.8310 C.3       1 PC         -0.0024
      8 N1         17.7840   14.2940   18.7310 N.4       1 PC          0.2387
      9 C3         16.5470   15.1680   18.8420 C.3       1 PC         -0.0417
     10 C4         18.9230   14.9870   18.1470 C.3       1 PC         -0.0417
     11 C5         18.1750   13.8640   20.0330 C.3       1 PC         -0.0417
     12 H1         15.4506   12.9068   18.5261 H         1 PC          0.0666
     13 H2         16.0022   11.6390   17.3794 H         1 PC          0.0666
     14 H3         17.2521   13.5476   16.8322 H         1 PC          0.0841
     15 H4         18.3661   12.5047   17.7798 H         1 PC          0.0841
     16 H5         16.7596   16.0221   19.5017 H         1 PC          0.0778
     17 H6         15.7180   14.5787   19.2608 H         1 PC          0.0778
     18 H7         16.2675   15.5363   17.8439 H         1 PC          0.0778
     19 H8         19.7819   14.3017   18.0952 H         1 PC          0.0778
     20 H9         19.1835   15.8548   18.7708 H         1 PC          0.0778
     21 H10        18.6645   15.3282   17.1337 H         1 PC          0.0778
     22 H11        17.3382   13.3333   20.5105 H         1 PC          0.0778
     23 H12        18.4492   14.7386   20.6411 H         1 PC          0.0778
     24 H13        19.0392   13.1883   19.9519 H         1 PC          0.0778
@<TRIPOS>BOND
     1    1    2 ar 
     2    1    3 ar 
     3    1    4 ar 
     4    1    5 1  
     5    5    6 1  
     6    6    7 1  
     7    7    8 1  
     8    8    9 1  
     9    8   10 1  
    10    8   11 1  
    11    6   12 1  
    12    6   13 1  
    13    7   14 1  
    14    7   15 1  
    15    9   16 1  
    16    9   17 1  
    17    9   18 1  
    18   10   19 1  
    19   10   20 1  
    20   10   21 1  
    21   11   22 1  
    22   11   23 1  
    23   11   24 1  
@<TRIPOS>SUBSTRUCTURE
     1 PC          1

