### 
### Created by X-TOOL on Fri Sep 26 17:34:30 2014
### 

@<TRIPOS>MOLECULE
1yfz_ligand
   34    36     1     0     0
SMALL
GAST_HUCK


@<TRIPOS>ATOM
      1 P          42.2720   35.8040   66.6010 P.3       1 IMP         0.2008
      2 O1P        41.0280   36.6050   66.4070 O.co2     1 IMP        -0.5537
      3 O2P        43.3340   36.6840   67.1810 O.co2     1 IMP        -0.5537
      4 O3P        42.0260   34.5820   67.5020 O.co2     1 IMP        -0.5537
      5 O5         42.8330   35.1990   65.2090 O.3       1 IMP        -0.2734
      6 C5         42.8680   36.1300   64.0900 C.3       1 IMP         0.1072
      7 C4         43.3950   35.5960   62.7700 C.3       1 IMP         0.1182
      8 O4         43.8470   36.8230   62.0610 O.3       1 IMP        -0.3362
      9 C3         44.6330   34.6540   62.7660 C.3       1 IMP         0.1149
     10 O3         44.3640   33.3810   62.1790 O.3       1 IMP        -0.3864
     11 C2         45.7210   35.3900   62.0070 C.3       1 IMP         0.1389
     12 O2         46.5460   34.5480   61.2290 O.3       1 IMP        -0.3835
     13 C1         44.8940   36.3870   61.2120 C.3       1 IMP         0.2003
     14 N9         45.7140   37.5800   60.7710 N.pl3     1 IMP        -0.2045
     15 C8         46.0520   37.9690   59.4990 C.2       1 IMP         0.1004
     16 N7         46.7730   39.0490   59.4640 N.2       1 IMP        -0.3155
     17 C5         46.9440   39.4260   60.7630 C.2       1 IMP         0.1044
     18 C6         47.6490   40.5440   61.3390 C.2       1 IMP         0.2200
     19 O6         48.2740   41.4230   60.7380 O.2       1 IMP        -0.4066
     20 N1         47.5880   40.5840   62.7740 N.am      1 IMP        -0.2042
     21 C2         46.9020   39.6250   63.5300 C.2       1 IMP         0.1273
     22 N3         46.2400   38.5750   62.9670 N.2       1 IMP        -0.2683
     23 C4         46.2940   38.5340   61.6150 C.2       1 IMP         0.1354
     24 H1         43.5038   36.9785   64.3830 H         1 IMP         0.0639
     25 H2         41.8405   36.4835   63.9192 H         1 IMP         0.0639
     26 H3         42.5735   35.0947   62.2373 H         1 IMP         0.0650
     27 H4         44.9601   34.4881   63.8030 H         1 IMP         0.0648
     28 H5         45.1511   32.8496   62.2033 H         1 IMP         0.2100
     29 H6         46.3736   35.9263   62.7116 H         1 IMP         0.0677
     30 H7         46.0148   34.0910   60.5875 H         1 IMP         0.2101
     31 H8         44.4764   35.8914   60.3232 H         1 IMP         0.1001
     32 H9         45.7457   37.4255   58.6064 H         1 IMP         0.1213
     33 H10        48.0548   41.3275   63.2529 H         1 IMP         0.2557
     34 H11        46.8974   39.7225   64.6146 H         1 IMP         0.1493
@<TRIPOS>BOND
     1    1    2 ar 
     2    1    3 ar 
     3    1    4 ar 
     4    1    5 1  
     5    5    6 1  
     6    6    7 1  
     7    7    8 1  
     8    7    9 1  
     9    8   13 1  
    10    9   10 1  
    11    9   11 1  
    12   11   12 1  
    13   11   13 1  
    14   13   14 1  
    15   14   15 1  
    16   14   23 1  
    17   15   16 2  
    18   16   17 1  
    19   17   18 1  
    20   17   23 2  
    21   18   19 2  
    22   18   20 am 
    23   20   21 am 
    24   21   22 2  
    25   22   23 1  
    26    6   24 1  
    27    6   25 1  
    28    7   26 1  
    29    9   27 1  
    30   10   28 1  
    31   11   29 1  
    32   12   30 1  
    33   13   31 1  
    34   15   32 1  
    35   20   33 1  
    36   21   34 1  
@<TRIPOS>SUBSTRUCTURE
     1 IMP         1

