### 
### Created by X-TOOL on Sat Nov 28 16:02:30 2015
### 

@<TRIPOS>MOLECULE
4r3w_ligand
   38    40     1     0     0
SMALL
GAST_HUCK


@<TRIPOS>ATOM
      1 P1        -16.0800   -5.3520    5.4070 P.3       1 A2P         0.2015
      2 O1P       -17.3360   -5.3180    6.2170 O.co2     1 A2P        -0.5537
      3 O2P       -16.1300   -4.7810    4.0310 O.co2     1 A2P        -0.5537
      4 O3P       -15.3940   -6.6730    5.4600 O.co2     1 A2P        -0.5537
      5 P2         -9.2750   -5.4380    3.3880 P.3       1 A2P         0.2008
      6 O4P        -8.1920   -6.3220    3.9390 O.co2     1 A2P        -0.5537
      7 O5P       -10.4070   -6.1680    2.7210 O.co2     1 A2P        -0.5537
      8 O6P        -8.8360   -4.2770    2.5570 O.co2     1 A2P        -0.5537
      9 O5'        -9.9870   -4.8090    4.6660 O.3       1 A2P        -0.2734
     10 C5'       -10.9190   -3.7420    4.5390 C.3       1 A2P         0.1072
     11 C4'       -11.5840   -3.5230    5.8920 C.3       1 A2P         0.1185
     12 O4'       -12.2230   -2.2560    5.9010 O.3       1 A2P        -0.3362
     13 C3'       -12.6820   -4.5400    6.1400 C.3       1 A2P         0.1196
     14 O3'       -12.7720   -4.8530    7.5280 O.3       1 A2P        -0.3860
     15 C2'       -13.9220   -3.8140    5.6950 C.3       1 A2P         0.1722
     16 O2'       -15.1270   -4.3580    6.2370 O.3       1 A2P        -0.2647
     17 C1'       -13.5930   -2.4240    6.2000 C.3       1 A2P         0.2057
     18 N9        -14.4560   -1.3990    5.5740 N.pl3     1 A2P        -0.1916
     19 C8        -14.5900   -1.1200    4.2660 C.2       1 A2P         0.1123
     20 N7        -15.4800   -0.1200    4.0870 N.2       1 A2P        -0.2958
     21 C5        -15.9400    0.2410    5.2970 C.ar      1 A2P         0.1045
     22 C6        -16.9070    1.2210    5.8140 C.ar      1 A2P         0.1298
     23 N6        -17.5840    2.0470    4.9740 N.pl3     1 A2P        -0.3152
     24 N1        -17.0710    1.2760    7.1370 N.ar      1 A2P        -0.2698
     25 C2        -16.3980    0.4750    7.9820 C.ar      1 A2P         0.0533
     26 N3        -15.5200   -0.4510    7.5840 N.ar      1 A2P        -0.2714
     27 C4        -15.2530   -0.6000    6.2740 C.ar      1 A2P         0.1613
     28 H         -11.6802   -4.0006    3.7882 H         1 A2P         0.0639
     29 H         -10.3951   -2.8256    4.2296 H         1 A2P         0.0639
     30 H         -10.8263   -3.5806    6.6873 H         1 A2P         0.0650
     31 H         -12.5193   -5.4579    5.5561 H         1 A2P         0.0651
     32 H         -13.4635   -5.4901    7.6636 H         1 A2P         0.2100
     33 H         -14.0077   -3.8206    4.5984 H         1 A2P         0.0732
     34 H         -13.7404   -2.3772    7.2891 H         1 A2P         0.1000
     35 H         -14.0565   -1.6283    3.4641 H         1 A2P         0.1349
     36 H         -18.2577    2.7276    5.3532 H         1 A2P         0.1820
     37 H         -17.4235    1.9926    3.9580 H         1 A2P         0.1820
     38 H         -16.5776    0.5865    9.0452 H         1 A2P         0.0996
@<TRIPOS>BOND
     1    1    2 ar 
     2    1    3 ar 
     3    1    4 ar 
     4   16    1 1  
     5    5    6 ar 
     6    5    7 ar 
     7    5    8 ar 
     8    9    5 1  
     9   10    9 1  
    10   11   10 1  
    11   11   12 1  
    12   13   11 1  
    13   12   17 1  
    14   13   14 1  
    15   15   13 1  
    16   15   16 1  
    17   15   17 1  
    18   17   18 1  
    19   18   19 1  
    20   18   27 1  
    21   19   20 2  
    22   20   21 1  
    23   21   22 ar 
    24   21   27 ar 
    25   22   23 1  
    26   22   24 ar 
    27   24   25 ar 
    28   25   26 ar 
    29   26   27 ar 
    30   10   28 1  
    31   10   29 1  
    32   11   30 1  
    33   13   31 1  
    34   14   32 1  
    35   15   33 1  
    36   17   34 1  
    37   19   35 1  
    38   23   36 1  
    39   23   37 1  
    40   25   38 1  
@<TRIPOS>SUBSTRUCTURE
     1 A2P         1

