### 
### Created by X-TOOL on Sat Nov 28 16:11:15 2015
### 

@<TRIPOS>MOLECULE
4wk1_ligand
   66    72     1     0     0
SMALL
GAST_HUCK


@<TRIPOS>ATOM
      1 P          14.2380  -28.8170   12.4460 P.3       1 MOL         0.2557
      2 O1P        14.8480  -29.2450   11.1400 O.co2     1 MOL        -0.6177
      3 O2P        13.5950  -27.4050   12.1870 O.co2     1 MOL        -0.6177
      4 O5'        13.1680  -29.9470   12.7910 O.3       1 MOL        -0.2514
      5 C5'        12.3660  -29.7820   13.9380 C.3       1 MOL         0.1128
      6 C4'        11.5180  -31.0560   14.0760 C.3       1 MOL         0.1242
      7 O4'        10.8440  -31.1710   12.9270 O.3       1 MOL        -0.3360
      8 C3'        12.4170  -32.2640   14.1970 C.3       1 MOL         0.1540
      9 O3'        12.6810  -32.5410   15.5230 O.3       1 MOL        -0.2453
     10 C2'        11.4720  -33.3470   13.5460 C.3       1 MOL         0.1439
     11 O2'        10.5860  -33.8690   14.5750 O.3       1 MOL        -0.3832
     12 C1'        10.7630  -32.7430   12.6270 C.3       1 MOL         0.2014
     13 N9         11.2290  -33.0640   11.3190 N.pl3     1 MOL        -0.1919
     14 C8         12.1160  -32.1740   10.8130 C.2       1 MOL         0.1123
     15 N7         12.4900  -32.6030    9.5600 N.2       1 MOL        -0.2958
     16 C5         11.8160  -33.7740    9.3180 C.ar      1 MOL         0.1045
     17 C6         11.7870  -34.6800    8.2250 C.ar      1 MOL         0.1298
     18 N6         12.4520  -34.7030    6.9690 N.pl3     1 MOL        -0.3152
     19 N1         11.0160  -35.7640    8.2720 N.ar      1 MOL        -0.2698
     20 C2         10.2440  -36.0220    9.3630 C.ar      1 MOL         0.0533
     21 N3         10.2620  -35.1500   10.4440 N.ar      1 MOL        -0.2714
     22 C4         11.0450  -34.0370   10.3830 C.ar      1 MOL         0.1613
     23 P1         14.1740  -33.0660   15.8580 P.3       1 MOL         0.2557
     24 O1P1       14.3710  -34.3840   15.1230 O.co2     1 MOL        -0.6177
     25 O2P1       14.4560  -33.3460   17.3280 O.co2     1 MOL        -0.6177
     26 O5'1       15.2150  -31.9770   15.1050 O.3       1 MOL        -0.2514
     27 C5'1       15.6240  -30.9450   15.9650 C.3       1 MOL         0.1128
     28 C4'1       16.6730  -30.1200   15.2730 C.3       1 MOL         0.1242
     29 O4'1       17.8190  -30.7130   15.3350 O.3       1 MOL        -0.3360
     30 C3'1       16.3450  -29.8880   13.6540 C.3       1 MOL         0.1540
     31 O3'1       15.5380  -28.6670   13.4880 O.3       1 MOL        -0.2453
     32 C2'1       17.4840  -29.7410   13.1150 C.3       1 MOL         0.1439
     33 O2'1       17.9480  -28.3090   13.2660 O.3       1 MOL        -0.3832
     34 C1'1       18.4900  -30.6210   13.9570 C.3       1 MOL         0.2014
     35 N91        18.6920  -31.8300   13.4580 N.pl3     1 MOL        -0.1919
     36 C81        17.8390  -32.8730   13.2930 C.2       1 MOL         0.1123
     37 N71        18.5470  -33.9070   12.7550 N.2       1 MOL        -0.2958
     38 C51        19.8420  -33.4960   12.5980 C.ar      1 MOL         0.1045
     39 C61        20.9780  -34.1520   12.0980 C.ar      1 MOL         0.1298
     40 N61        20.9750  -35.5150   11.6130 N.pl3     1 MOL        -0.3152
     41 N11        22.1750  -33.4980   12.0530 N.ar      1 MOL        -0.2698
     42 C21        22.2640  -32.2070   12.4970 C.ar      1 MOL         0.0533
     43 N31        21.1460  -31.5640   12.9850 N.ar      1 MOL        -0.2714
     44 C41        19.9350  -32.2210   13.0370 C.ar      1 MOL         0.1613
     45 H          11.7136  -28.9042   13.8205 H         1 MOL         0.0647
     46 H          12.9999  -29.6513   14.8274 H         1 MOL         0.0647
     47 H          10.8389  -30.9877   14.9387 H         1 MOL         0.0655
     48 H          13.3594  -32.1458   13.6420 H         1 MOL         0.0712
     49 H          12.0629  -34.1622   13.1030 H         1 MOL         0.0680
     50 H          10.0113  -34.5229   14.1946 H         1 MOL         0.2101
     51 H           9.7155  -33.0691   12.7072 H         1 MOL         0.0996
     52 H          12.4719  -31.2738   11.3119 H         1 MOL         0.1349
     53 H          12.2800  -35.4751    6.3093 H         1 MOL         0.1820
     54 H          13.1059  -33.9476    6.7186 H         1 MOL         0.1820
     55 H           9.6168  -36.9057    9.3881 H         1 MOL         0.0996
     56 H          16.0423  -31.3764   16.8864 H         1 MOL         0.0647
     57 H          14.7615  -30.3101   16.2160 H         1 MOL         0.0647
     58 H          16.7338  -29.1422   15.7733 H         1 MOL         0.0655
     59 H          15.8148  -30.7521   13.2271 H         1 MOL         0.0712
     60 H          17.4631  -30.0414   12.0570 H         1 MOL         0.0680
     61 H          17.3250  -27.7292   12.8438 H         1 MOL         0.2101
     62 H          19.4604  -30.1087   14.0335 H         1 MOL         0.0996
     63 H          16.7796  -32.8824   13.5450 H         1 MOL         0.1349
     64 H          21.8450  -35.9374   11.2586 H         1 MOL         0.1820
     65 H          20.1029  -36.0630   11.6221 H         1 MOL         0.1820
     66 H          23.2154  -31.6885   12.4651 H         1 MOL         0.0996
@<TRIPOS>BOND
     1    1    2 ar 
     2    1    3 ar 
     3    1    4 1  
     4    1   31 1  
     5    4    5 1  
     6    5    6 1  
     7    6    7 1  
     8    6    8 1  
     9    7   12 1  
    10    8    9 1  
    11    8   10 1  
    12    9   23 1  
    13   10   11 1  
    14   10   12 1  
    15   12   13 1  
    16   13   14 1  
    17   13   22 1  
    18   14   15 2  
    19   15   16 1  
    20   16   17 ar 
    21   16   22 ar 
    22   17   18 1  
    23   17   19 ar 
    24   19   20 ar 
    25   20   21 ar 
    26   21   22 ar 
    27   23   24 ar 
    28   23   25 ar 
    29   23   26 1  
    30   26   27 1  
    31   27   28 1  
    32   28   29 1  
    33   28   30 1  
    34   29   34 1  
    35   30   31 1  
    36   30   32 1  
    37   32   33 1  
    38   32   34 1  
    39   34   35 1  
    40   35   36 1  
    41   35   44 1  
    42   36   37 2  
    43   37   38 1  
    44   38   39 ar 
    45   38   44 ar 
    46   39   40 1  
    47   39   41 ar 
    48   41   42 ar 
    49   42   43 ar 
    50   43   44 ar 
    51    5   45 1  
    52    5   46 1  
    53    6   47 1  
    54    8   48 1  
    55   10   49 1  
    56   11   50 1  
    57   12   51 1  
    58   14   52 1  
    59   18   53 1  
    60   18   54 1  
    61   20   55 1  
    62   27   56 1  
    63   27   57 1  
    64   28   58 1  
    65   30   59 1  
    66   32   60 1  
    67   33   61 1  
    68   34   62 1  
    69   36   63 1  
    70   40   64 1  
    71   40   65 1  
    72   42   66 1  
@<TRIPOS>SUBSTRUCTURE
     1 MOL         1

