### 
### Created by X-TOOL on Fri Sep 26 17:34:45 2014
### 

@<TRIPOS>MOLECULE
3elc_ligand
   30    31     1     0     0
SMALL
GAST_HUCK


@<TRIPOS>ATOM
      1 O1         33.4890    5.9290   42.1690 O.2       1 F01        -0.3793
      2 C6         34.0770    5.1880   41.3840 C.2       1 F01         0.3459
      3 N1         35.1160    5.7190   40.6310 N.am      1 F01        -0.1900
      4 C7         35.7990    4.9410   39.7360 C.2       1 F01         0.1230
      5 N2         36.7780    5.4860   39.0410 N.2       1 F01        -0.4259
      6 C8         35.4660    3.6140   39.5750 C.2       1 F01         0.1883
      7 F1         36.1470    2.8770   38.6830 F         1 F01        -0.2113
      8 C9         34.4390    3.0440   40.3140 C.2       1 F01         0.1039
      9 N3         33.7190    3.8330   41.2360 N.am      1 F01        -0.1499
     10 C1         32.6250    3.2510   42.0570 C.3       1 F01         0.2089
     11 O4         33.2060    2.0040   42.5090 O.3       1 F01        -0.3360
     12 C4         32.2030    0.9780   42.3810 C.3       1 F01         0.1136
     13 C5         32.8990   -0.3640   42.0750 C.3       1 F01         0.0730
     14 O5         33.5860   -0.3160   40.7990 O.3       1 F01        -0.3924
     15 C3         31.3890    1.3990   41.1660 C.3       1 F01         0.1146
     16 O3         30.1050    0.8310   41.2270 O.3       1 F01        -0.3864
     17 C2         31.3250    2.9070   41.3220 C.3       1 F01         0.1395
     18 O2         30.2220    3.2500   42.1540 O.3       1 F01        -0.3835
     19 H1         35.3678    6.6802   40.7440 H         1 F01         0.2413
     20 H2         37.2940    4.9309   38.3764 H         1 F01         0.0348
     21 H3         34.1898    1.9920   40.1829 H         1 F01         0.1233
     22 H4         32.3923    3.9213   42.8975 H         1 F01         0.1008
     23 H5         31.5797    0.9001   43.2840 H         1 F01         0.0647
     24 H6         32.1431   -1.1626   42.0463 H         1 F01         0.0584
     25 H7         33.6297   -0.5791   42.8686 H         1 F01         0.0584
     26 H8         34.2429    0.3700   40.8199 H         1 F01         0.2095
     27 H9         31.8830    1.1118   40.2261 H         1 F01         0.0648
     28 H10        29.6661    1.1272   42.0157 H         1 F01         0.2100
     29 H11        31.2547    3.4166   40.3497 H         1 F01         0.0677
     30 H12        29.4178    2.9372   41.7567 H         1 F01         0.2101
@<TRIPOS>BOND
     1    1    2 2  
     2    2    3 am 
     3    2    9 am 
     4    3    4 1  
     5    4    5 2  
     6    4    6 1  
     7    6    7 1  
     8    6    8 2  
     9    8    9 1  
    10    9   10 1  
    11   10   11 1  
    12   10   17 1  
    13   11   12 1  
    14   12   13 1  
    15   12   15 1  
    16   13   14 1  
    17   15   16 1  
    18   15   17 1  
    19   17   18 1  
    20    3   19 1  
    21    5   20 1  
    22    8   21 1  
    23   10   22 1  
    24   12   23 1  
    25   13   24 1  
    26   13   25 1  
    27   14   26 1  
    28   15   27 1  
    29   16   28 1  
    30   17   29 1  
    31   18   30 1  
@<TRIPOS>SUBSTRUCTURE
     1 F01         1

