### 
### Created by X-TOOL on Fri Sep 26 17:34:45 2014
### 

@<TRIPOS>MOLECULE
3gdt_ligand
   31    32     1     0     0
SMALL
GAST_HUCK


@<TRIPOS>ATOM
      1 N1         58.9610   58.4800   23.7810 N.am      1 UP6        -0.0895
      2 C2         58.6240   59.3730   22.7520 C.2       1 UP6         0.3448
      3 N3         57.4620   60.0850   22.9900 N.am      1 UP6        -0.1783
      4 C4         56.5610   59.8590   24.0400 C.2       1 UP6         0.2283
      5 C5         56.9410   58.8650   25.0070 C.2       1 UP6         0.1074
      6 N6         58.0980   58.2220   24.8670 N.2       1 UP6        -0.1511
      7 O2         59.2690   59.5060   21.7570 O.2       1 UP6        -0.3820
      8 O4         55.5420   60.5090   24.0630 O.2       1 UP6        -0.3896
      9 C1'        60.2230   57.7690   23.7680 C.3       1 UP6         0.2182
     10 C2'        60.8840   57.3630   25.0840 C.3       1 UP6         0.1395
     11 C3'        61.7720   56.2290   24.6310 C.3       1 UP6         0.1149
     12 C4'        60.9310   55.5560   23.5420 C.3       1 UP6         0.1182
     13 O2'        61.6480   58.4450   25.6420 O.3       1 UP6        -0.3836
     14 O3'        62.9780   56.7220   24.0520 O.3       1 UP6        -0.3864
     15 O4'        60.0700   56.5790   23.0150 O.3       1 UP6        -0.3358
     16 C5'        60.0480   54.3990   23.9590 C.3       1 UP6         0.1071
     17 O5'        59.6330   53.7800   22.7480 O.3       1 UP6        -0.2734
     18 P          59.3600   52.1860   22.6720 P.3       1 UP6         0.2008
     19 O1P        60.6240   51.4440   23.0150 O.co2     1 UP6        -0.5537
     20 O2P        58.9000   51.9950   21.2580 O.co2     1 UP6        -0.5537
     21 O3P        58.1530   51.8850   23.6720 O.co2     1 UP6        -0.5537
     22 H1         57.2453   60.8275   22.3562 H         1 UP6         0.2273
     23 H2         56.2868   58.6398   25.8480 H         1 UP6         0.0786
     24 H3         60.9367   58.4263   23.2498 H         1 UP6         0.1005
     25 H4         60.1408   57.0221   25.8198 H         1 UP6         0.0676
     26 H5         62.0004   55.5404   25.4579 H         1 UP6         0.0648
     27 H6         61.6134   55.1942   22.7587 H         1 UP6         0.0650
     28 H7         62.2488   58.7783   24.9859 H         1 UP6         0.2101
     29 H8         63.5028   57.1404   24.7243 H         1 UP6         0.2100
     30 H9         59.1764   54.7644   24.5219 H         1 UP6         0.0639
     31 H10        60.6136   53.6883   24.5794 H         1 UP6         0.0639
@<TRIPOS>BOND
     1    1    2 am 
     2    1    6 1  
     3    1    9 1  
     4    2    3 am 
     5    2    7 2  
     6    3    4 am 
     7    4    5 1  
     8    4    8 2  
     9    5    6 2  
    10    9   10 1  
    11    9   15 1  
    12   10   11 1  
    13   10   13 1  
    14   11   12 1  
    15   11   14 1  
    16   12   15 1  
    17   12   16 1  
    18   16   17 1  
    19   17   18 1  
    20   18   19 ar 
    21   18   20 ar 
    22   18   21 ar 
    23    3   22 1  
    24    5   23 1  
    25    9   24 1  
    26   10   25 1  
    27   11   26 1  
    28   12   27 1  
    29   13   28 1  
    30   14   29 1  
    31   16   30 1  
    32   16   31 1  
@<TRIPOS>SUBSTRUCTURE
     1 UP6         1

