### 
### Created by X-TOOL on Fri Sep 26 17:34:31 2014
### 

@<TRIPOS>MOLECULE
2cbz_ligand
   43    45     1     0     0
SMALL
GAST_HUCK


@<TRIPOS>ATOM
      1 PG        -21.6390   46.5380    6.1560 P.3       1 ATP         0.1879
      2 O1G       -20.3700   46.4390    6.9590 O.co2     1 ATP        -0.6091
      3 O2G       -22.1040   45.2090    5.6090 O.co2     1 ATP        -0.6091
      4 O3G       -22.7510   47.3510    6.7940 O.co2     1 ATP        -0.6091
      5 PB        -20.4670   48.7440    4.7010 P.3       1 ATP         0.3553
      6 O1B       -21.3820   49.9060    4.9470 O.co2     1 ATP        -0.5652
      7 O2B       -19.2030   48.6860    5.5020 O.co2     1 ATP        -0.5652
      8 O3B       -21.2820   47.3520    4.7910 O.3       1 ATP        -0.1546
      9 PA        -18.7830   48.4910    2.3300 P.3       1 ATP         0.3266
     10 O1A       -18.1920   47.1910    2.7830 O.co2     1 ATP        -0.5692
     11 O2A       -17.9360   49.7310    2.3580 O.co2     1 ATP        -0.5692
     12 O3A       -20.1500   48.7920    3.1230 O.3       1 ATP        -0.1171
     13 O5        -19.3930   48.2200    0.8620 O.3       1 ATP        -0.2441
     14 C5        -19.5630   49.1970   -0.1620 C.3       1 ATP         0.1131
     15 C4        -18.8580   48.6920   -1.4330 C.3       1 ATP         0.1189
     16 O4        -17.4480   48.6460   -1.1630 O.3       1 ATP        -0.3364
     17 C3        -19.2460   47.2590   -1.7870 C.3       1 ATP         0.1149
     18 O3        -19.3310   47.1290   -3.2130 O.3       1 ATP        -0.3864
     19 C2        -18.0870   46.4230   -1.2770 C.3       1 ATP         0.1385
     20 O2        -17.9270   45.1870   -1.9700 O.3       1 ATP        -0.3836
     21 C1        -16.9180   47.3630   -1.5080 C.3       1 ATP         0.2010
     22 N9        -15.7510   47.0150   -0.6660 N.pl3     1 ATP        -0.1919
     23 C8        -15.6710   47.1300    0.6740 C.2       1 ATP         0.1123
     24 N7        -14.4570   46.7300    1.1340 N.2       1 ATP        -0.2958
     25 C5        -13.7280   46.3530    0.0660 C.ar      1 ATP         0.1045
     26 C6        -12.3530   45.8280   -0.1530 C.ar      1 ATP         0.1298
     27 N6        -11.5200   45.6290    0.8990 N.pl3     1 ATP        -0.3152
     28 N1        -11.9750   45.5590   -1.4290 N.ar      1 ATP        -0.2698
     29 C2        -12.8090   45.7610   -2.4780 C.ar      1 ATP         0.0533
     30 N3        -14.0700   46.2370   -2.3500 N.ar      1 ATP        -0.2714
     31 C4        -14.5810   46.5430   -1.1230 C.ar      1 ATP         0.1613
     32 H1        -19.1175   50.1510    0.1564 H         1 ATP         0.0648
     33 H2        -20.6346   49.3419   -0.3637 H         1 ATP         0.0648
     34 H3        -19.0807   49.3652   -2.2739 H         1 ATP         0.0651
     35 H4        -20.1954   46.9674   -1.3142 H         1 ATP         0.0648
     36 H5        -19.5725   46.2373   -3.4348 H         1 ATP         0.2100
     37 H6        -18.2094   46.2073   -0.2053 H         1 ATP         0.0676
     38 H7        -17.7697   45.3596   -2.8908 H         1 ATP         0.2101
     39 H8        -16.6126   47.3431   -2.5645 H         1 ATP         0.0996
     40 H9        -16.4770   47.4969    1.3077 H         1 ATP         0.1349
     41 H10       -10.5693   45.2654    0.7415 H         1 ATP         0.1820
     42 H11       -11.8382   45.8415    1.8553 H         1 ATP         0.1820
     43 H12       -12.4470   45.5290   -3.4731 H         1 ATP         0.0996
@<TRIPOS>BOND
     1    1    2 ar 
     2    1    3 ar 
     3    1    4 ar 
     4    8    1 1  
     5    5    6 ar 
     6    5    7 ar 
     7    5    8 1  
     8   12    5 1  
     9    9   10 ar 
    10    9   11 ar 
    11    9   12 1  
    12    9   13 1  
    13   13   14 1  
    14   14   15 1  
    15   15   16 1  
    16   15   17 1  
    17   16   21 1  
    18   17   18 1  
    19   17   19 1  
    20   19   20 1  
    21   19   21 1  
    22   21   22 1  
    23   22   23 1  
    24   22   31 1  
    25   23   24 2  
    26   24   25 1  
    27   25   26 ar 
    28   25   31 ar 
    29   26   27 1  
    30   26   28 ar 
    31   28   29 ar 
    32   29   30 ar 
    33   30   31 ar 
    34   14   32 1  
    35   14   33 1  
    36   15   34 1  
    37   17   35 1  
    38   18   36 1  
    39   19   37 1  
    40   20   38 1  
    41   21   39 1  
    42   23   40 1  
    43   27   41 1  
    44   27   42 1  
    45   29   43 1  
@<TRIPOS>SUBSTRUCTURE
     1 ATP         1

