REMARK  2 active torsions:
REMARK  status: ('A' for Active; 'I' for Inactive)
REMARK    1  A    between atoms: C3_3  and  N15_15 
REMARK    2  A    between atoms: C6_6  and  N16_16 
ROOT
ATOM      1  C1  PRL d           5.711  -3.829   4.702  0.00  0.00     0.016 A 
ATOM      2  C2  PRL d           6.437  -3.018   3.820  0.00  0.00     0.030 A 
ATOM      3  C3  PRL d           7.830  -2.947   3.940  0.00  0.00     0.028 A 
ATOM      4  C4  PRL d           8.493  -3.686   4.914  0.00  0.00     0.061 A 
ATOM      5  C5  PRL d           8.504  -6.694   8.577  0.00  0.00     0.061 A 
ATOM      6  C6  PRL d           7.830  -7.512   9.489  0.00  0.00     0.028 A 
ATOM      7  C7  PRL d           6.451  -7.627   9.421  0.00  0.00     0.030 A 
ATOM      8  C8  PRL d           5.740  -6.925   8.461  0.00  0.00     0.016 A 
ATOM      9  C9  PRL d           5.684  -5.382   6.586  0.00  0.00     0.027 A 
ATOM     10  N10 PRL d           8.428  -5.194   6.735  0.00  0.00    -0.247 NA
ATOM     11  C11 PRL d           7.769  -4.484   5.794  0.00  0.00     0.070 A 
ATOM     12  C12 PRL d           6.401  -6.098   7.556  0.00  0.00    -0.006 A 
ATOM     13  C13 PRL d           6.379  -4.565   5.689  0.00  0.00    -0.006 A 
ATOM     14  C14 PRL d           7.781  -5.994   7.609  0.00  0.00     0.070 A 
ENDROOT
BRANCH   3  15
ATOM     15  N15 PRL d           8.535  -2.167   3.093  0.00  0.00    -0.399 N 
ATOM     16  H8  PRL d           8.047  -1.619   2.371  0.00  0.00     0.156 HD
ATOM     17  H9  PRL d           9.561  -2.120   3.169  0.00  0.00     0.156 HD
ENDBRANCH   3  15
BRANCH   6  18
ATOM     18  N16 PRL d           8.508  -8.210  10.434  0.00  0.00    -0.399 N 
ATOM     19  H10 PRL d           9.533  -8.133  10.495  0.00  0.00     0.156 HD
ATOM     20  H11 PRL d           7.997  -8.817  11.091  0.00  0.00     0.156 HD
ENDBRANCH   6  18
TORSDOF 2
