REMARK  9 active torsions:
REMARK  status: ('A' for Active; 'I' for Inactive)
REMARK    1  A    between atoms: C2_2  and  C1_1 
REMARK    2  A    between atoms: C4_4  and  O4_15 
REMARK    3  A    between atoms: N5_12  and  C5_5 
REMARK    4  A    between atoms: C6_6  and  C7_7 
REMARK    5  A    between atoms: C7_7  and  C8_8 
REMARK    6  A    between atoms: C7_7  and  O7_17 
REMARK    7  A    between atoms: C8_8  and  C9_9 
REMARK    8  A    between atoms: C8_8  and  O8_18 
REMARK    9  A    between atoms: C9_9  and  O9_19 
REMARK       I    between atoms: C10_10  and  N5_12 
ROOT
ATOM      1  C2  DAN d          -3.348  76.208  24.649  0.00  0.00     0.144 C 
ATOM      2  C3  DAN d          -3.163  74.998  24.090  0.00  0.00     0.050 C 
ATOM      3  C4  DAN d          -3.937  74.524  22.855  0.00  0.00     0.169 C 
ATOM      4  C5  DAN d          -4.584  75.672  22.067  0.00  0.00     0.149 C 
ATOM      5  C6  DAN d          -5.230  76.599  23.110  0.00  0.00     0.186 C 
ATOM      6  O6  DAN d          -4.286  77.137  24.045  0.00  0.00    -0.335 OA
ENDROOT
BRANCH   5   7
ATOM      7  C7  DAN d          -5.924  77.776  22.446  0.00  0.00     0.180 C 
BRANCH   7   8
ATOM      8  C8  DAN d          -6.656  78.728  23.382  0.00  0.00     0.173 C 
BRANCH   8   9
ATOM      9  C9  DAN d          -5.754  79.622  24.241  0.00  0.00     0.198 C 
BRANCH   9  10
ATOM     10  O9  DAN d          -5.489  79.079  25.542  0.00  0.00    -0.398 OA
ATOM     11  H16 DAN d          -5.056  78.238  25.451  0.00  0.00     0.209 HD
ENDBRANCH   9  10
ENDBRANCH   8   9
BRANCH   8  12
ATOM     12  O8  DAN d          -7.440  79.568  22.518  0.00  0.00    -0.391 OA
ATOM     13  H15 DAN d          -6.861  80.076  21.962  0.00  0.00     0.210 HD
ENDBRANCH   8  12
ENDBRANCH   7   8
BRANCH   7  14
ATOM     14  O7  DAN d          -4.974  78.494  21.652  0.00  0.00    -0.390 OA
ATOM     15  H14 DAN d          -5.426  79.151  21.136  0.00  0.00     0.210 HD
ENDBRANCH   7  14
ENDBRANCH   5   7
BRANCH   4  16
ATOM     16  N5  DAN d          -5.627  75.173  21.163  0.00  0.00    -0.351 N 
ATOM     17  C10 DAN d          -5.802  75.499  19.862  0.00  0.00     0.214 C 
ATOM     18  C11 DAN d          -6.900  74.777  19.142  0.00  0.00     0.117 C 
ATOM     19  O10 DAN d          -5.124  76.300  19.234  0.00  0.00    -0.274 OA
ATOM     20  H12 DAN d          -6.279  74.521  21.551  0.00  0.00     0.163 HD
ENDBRANCH   4  16
BRANCH   3  21
ATOM     21  O4  DAN d          -3.224  73.503  22.100  0.00  0.00    -0.389 OA
ATOM     22  H13 DAN d          -2.873  72.855  22.699  0.00  0.00     0.210 HD
ENDBRANCH   3  21
BRANCH   1  23
ATOM     23  C1  DAN d          -2.668  76.676  25.869  0.00  0.00     0.233 C 
ATOM     24  O1A DAN d          -1.525  76.320  26.245  0.00  0.00    -0.642 OA
ATOM     25  O1B DAN d          -3.297  77.470  26.594  0.00  0.00    -0.642 OA
ENDBRANCH   1  23
TORSDOF 9
