### 
### Created by X-TOOL on Sat Nov 28 16:05:15 2015
### 

@<TRIPOS>MOLECULE
4d3h_ligand
   66    72     1     0     0
SMALL
GAST_HUCK


@<TRIPOS>ATOM
      1 P          -8.6740   -7.6270   -9.5220 P.3       1 MOL         0.2557
      2 O1P        -7.8660   -8.4380   -8.5460 O.co2     1 MOL        -0.6177
      3 O2P        -8.5830   -6.1760   -9.7150 O.co2     1 MOL        -0.6177
      4 O5'        -8.1640   -8.2510  -10.9730 O.3       1 MOL        -0.2514
      5 C5'        -8.4350   -7.5750  -12.2030 C.3       1 MOL         0.1128
      6 C4'        -7.8470   -8.4650  -13.3070 C.3       1 MOL         0.1242
      7 O4'        -6.4110   -8.4720  -13.1270 O.3       1 MOL        -0.3360
      8 C3'        -8.2110   -9.9330  -13.2410 C.3       1 MOL         0.1540
      9 O3'        -9.4360  -10.3220  -13.8800 O.3       1 MOL        -0.2453
     10 C2'        -6.9920  -10.6000  -13.8320 C.3       1 MOL         0.1439
     11 O2'        -7.0400  -10.6410  -15.2680 O.3       1 MOL        -0.3832
     12 C1'        -5.8410   -9.7280  -13.4090 C.3       1 MOL         0.2014
     13 N9         -5.0680  -10.2110  -12.2020 N.pl3     1 MOL        -0.1919
     14 C8         -5.2540   -9.8470  -10.8760 C.2       1 MOL         0.1123
     15 N7         -4.3550  -10.4400  -10.0480 N.2       1 MOL        -0.2958
     16 C5         -3.6010  -11.2030  -10.8770 C.ar      1 MOL         0.1045
     17 C6         -2.5000  -12.1310  -10.6650 C.ar      1 MOL         0.1298
     18 N6         -2.0310  -12.3240   -9.4380 N.pl3     1 MOL        -0.3152
     19 N1         -1.9730  -12.7500  -11.7450 N.ar      1 MOL        -0.2698
     20 C2         -2.4590  -12.5860  -12.9790 C.ar      1 MOL         0.0533
     21 N3         -3.4740  -11.7790  -13.2530 N.ar      1 MOL        -0.2714
     22 C4         -4.0810  -11.0920  -12.2430 C.ar      1 MOL         0.1613
     23 P1        -10.3120  -11.5040  -13.2780 P.3       1 MOL         0.2557
     24 O1P1       -9.5060  -12.7830  -13.0940 O.co2     1 MOL        -0.6177
     25 O2P1      -11.4380  -11.6380  -14.2240 O.co2     1 MOL        -0.6177
     26 O5'1      -10.6840  -10.9230  -11.8010 O.3       1 MOL        -0.2514
     27 C5'1      -11.5540   -9.8000  -11.6600 C.3       1 MOL         0.1128
     28 C4'1      -11.8580   -9.5300  -10.2050 C.3       1 MOL         0.1242
     29 O4'1      -12.5020  -10.7040   -9.6760 O.3       1 MOL        -0.3360
     30 C3'1      -10.6220   -9.3750   -9.3460 C.3       1 MOL         0.1540
     31 O3'1      -10.2070   -8.0590   -9.4850 O.3       1 MOL        -0.2453
     32 C2'1      -11.1410   -9.7290   -7.9690 C.3       1 MOL         0.1439
     33 O2'1      -11.8060   -8.5990   -7.3300 O.3       1 MOL        -0.3832
     34 C1'1      -12.1430  -10.8260   -8.2880 C.3       1 MOL         0.2014
     35 N91       -11.6240  -12.2080   -8.1860 N.pl3     1 MOL        -0.1919
     36 C81       -10.7810  -12.8180   -9.0560 C.2       1 MOL         0.1123
     37 N71       -10.5030  -14.0960   -8.6860 N.2       1 MOL        -0.2958
     38 C51       -11.1830  -14.3080   -7.5750 C.ar      1 MOL         0.1045
     39 C61       -11.3520  -15.4460   -6.6350 C.ar      1 MOL         0.1298
     40 N61       -10.7300  -16.6180   -6.8420 N.pl3     1 MOL        -0.3152
     41 N11       -12.1310  -15.2420   -5.5580 N.ar      1 MOL        -0.2698
     42 C21       -12.7850  -14.0850   -5.3250 C.ar      1 MOL         0.0533
     43 N31       -12.6950  -13.0260   -6.1450 N.ar      1 MOL        -0.2714
     44 C41       -11.9220  -13.0730   -7.2560 C.ar      1 MOL         0.1613
     45 H          -7.9533   -6.5861  -12.2109 H         1 MOL         0.0647
     46 H          -9.5194   -7.4558  -12.3439 H         1 MOL         0.0647
     47 H          -8.1310   -8.0551  -14.2875 H         1 MOL         0.0655
     48 H          -8.3052  -10.2222  -12.1839 H         1 MOL         0.0712
     49 H          -6.8826  -11.6207  -13.4368 H         1 MOL         0.0680
     50 H          -6.2575  -11.0669  -15.5978 H         1 MOL         0.2101
     51 H          -5.1367   -9.6408  -14.2495 H         1 MOL         0.0996
     52 H          -6.0318   -9.1640  -10.5377 H         1 MOL         0.1349
     53 H          -1.2520  -12.9794   -9.2816 H         1 MOL         0.1820
     54 H          -2.4461  -11.8183   -8.6425 H         1 MOL         0.1820
     55 H          -2.0024  -13.1379  -13.7926 H         1 MOL         0.0996
     56 H         -12.4948  -10.0047  -12.1920 H         1 MOL         0.0647
     57 H         -11.0710   -8.9136  -12.0970 H         1 MOL         0.0647
     58 H         -12.4991   -8.6403  -10.1184 H         1 MOL         0.0655
     59 H          -9.8131  -10.0576   -9.6456 H         1 MOL         0.0712
     60 H         -10.3325  -10.0959   -7.3197 H         1 MOL         0.0680
     61 H         -12.1166   -8.8602   -6.4710 H         1 MOL         0.2101
     62 H         -13.0207  -10.7090   -7.6354 H         1 MOL         0.0996
     63 H         -10.3747  -12.3401   -9.9462 H         1 MOL         0.1349
     64 H         -10.8605  -17.3946   -6.1781 H         1 MOL         0.1820
     65 H         -10.1224  -16.7403   -7.6647 H         1 MOL         0.1820
     66 H         -13.4075  -14.0076   -4.4409 H         1 MOL         0.0996
@<TRIPOS>BOND
     1    1    2 ar 
     2    1    3 ar 
     3    1    4 1  
     4    1   31 1  
     5    4    5 1  
     6    5    6 1  
     7    6    7 1  
     8    6    8 1  
     9    7   12 1  
    10    8    9 1  
    11    8   10 1  
    12    9   23 1  
    13   10   11 1  
    14   10   12 1  
    15   12   13 1  
    16   13   14 1  
    17   13   22 1  
    18   14   15 2  
    19   15   16 1  
    20   16   17 ar 
    21   16   22 ar 
    22   17   18 1  
    23   17   19 ar 
    24   19   20 ar 
    25   20   21 ar 
    26   21   22 ar 
    27   23   24 ar 
    28   23   25 ar 
    29   23   26 1  
    30   26   27 1  
    31   27   28 1  
    32   28   29 1  
    33   28   30 1  
    34   29   34 1  
    35   30   31 1  
    36   30   32 1  
    37   32   33 1  
    38   32   34 1  
    39   34   35 1  
    40   35   36 1  
    41   35   44 1  
    42   36   37 2  
    43   37   38 1  
    44   38   39 ar 
    45   38   44 ar 
    46   39   40 1  
    47   39   41 ar 
    48   41   42 ar 
    49   42   43 ar 
    50   43   44 ar 
    51    5   45 1  
    52    5   46 1  
    53    6   47 1  
    54    8   48 1  
    55   10   49 1  
    56   11   50 1  
    57   12   51 1  
    58   14   52 1  
    59   18   53 1  
    60   18   54 1  
    61   20   55 1  
    62   27   56 1  
    63   27   57 1  
    64   28   58 1  
    65   30   59 1  
    66   32   60 1  
    67   33   61 1  
    68   34   62 1  
    69   36   63 1  
    70   40   64 1  
    71   40   65 1  
    72   42   66 1  
@<TRIPOS>SUBSTRUCTURE
     1 MOL         1

