### 
### Created by X-TOOL on Fri Sep 26 17:34:27 2014
### 

@<TRIPOS>MOLECULE
1r1h_ligand
   55    56     1     0     0
SMALL
GAST_HUCK


@<TRIPOS>ATOM
      1 C3         27.8590   41.3560   29.9450 C.3       1 BIR        -0.0049
      2 C2         27.7080   42.3620   31.0920 C.3       1 BIR         0.0344
      3 N1         26.4000   42.9990   31.0150 N.4       1 BIR         0.2334
      4 P4         29.0160   43.5020   31.0260 P.3       1 BIR         0.0378
      5 O6         30.2300   42.6500   31.2230 O.co2     1 BIR        -0.6154
      6 O5         28.9360   44.3150   29.7670 O.co2     1 BIR        -0.6154
      7 C7         28.8610   44.5560   32.3940 C.3       1 BIR         0.0401
      8 C8         30.1480   44.7420   33.2110 C.3       1 BIR         0.0744
      9 C10        30.3750   43.5780   34.1410 C.2       1 BIR         0.1843
     10 O23        31.5010   43.1770   34.3910 O.2       1 BIR        -0.3964
     11 N24        29.3100   42.9860   34.6650 N.am      1 BIR        -0.2712
     12 C25        29.5280   41.9220   35.6310 C.3       1 BIR         0.0915
     13 C26        29.4470   42.4720   37.0530 C.3       1 BIR        -0.0300
     14 C27        28.5250   40.8350   35.4610 C.2       1 BIR         0.0598
     15 O28        27.6000   40.9770   34.6580 O.co2     1 BIR        -0.5666
     16 O29        28.6470   39.8160   36.1230 O.co2     1 BIR        -0.5666
     17 C9         30.0520   46.0510   34.0090 C.3       1 BIR         0.0026
     18 C11        31.3280   46.3400   34.7470 C.ar      1 BIR        -0.0395
     19 C12        31.3180   46.4890   36.1320 C.ar      1 BIR        -0.0588
     20 C13        32.5010   46.7400   36.8190 C.ar      1 BIR        -0.0600
     21 C14        33.7170   46.8410   36.1310 C.ar      1 BIR        -0.0242
     22 C15        33.7170   46.6950   34.7390 C.ar      1 BIR        -0.0600
     23 C16        32.5330   46.4480   34.0540 C.ar      1 BIR        -0.0588
     24 C17        34.9700   47.0860   36.8550 C.ar      1 BIR        -0.0221
     25 C18        36.1210   46.3480   36.5520 C.ar      1 BIR        -0.0557
     26 C19        37.3100   46.5740   37.2400 C.ar      1 BIR        -0.0622
     27 C20        37.3650   47.5440   38.2380 C.ar      1 BIR        -0.0627
     28 C21        36.2260   48.2850   38.5470 C.ar      1 BIR        -0.0622
     29 C22        35.0370   48.0560   37.8620 C.ar      1 BIR        -0.0557
     30 H1         27.0325   40.6310   29.9820 H         1 BIR         0.0301
     31 H2         28.8171   40.8252   30.0465 H         1 BIR         0.0301
     32 H3         27.8356   41.8899   28.9835 H         1 BIR         0.0301
     33 H4         27.7701   41.8224   32.0485 H         1 BIR         0.1062
     34 H5         25.6802   42.2946   31.0575 H         1 BIR         0.2012
     35 H6         26.3235   43.5055   30.1469 H         1 BIR         0.2012
     36 H7         26.2912   43.6375   31.7873 H         1 BIR         0.2012
     37 H8         28.0896   44.1418   33.0598 H         1 BIR         0.0496
     38 H9         28.5402   45.5435   32.0309 H         1 BIR         0.0496
     39 H10        31.0003   44.8077   32.5187 H         1 BIR         0.0577
     40 H11        28.3854   43.2632   34.4035 H         1 BIR         0.1875
     41 H12        30.5323   41.5034   35.4692 H         1 BIR         0.0723
     42 H13        29.6138   41.6561   37.7717 H         1 BIR         0.0270
     43 H14        28.4522   42.9105   37.2205 H         1 BIR         0.0270
     44 H15        30.2167   43.2456   37.1914 H         1 BIR         0.0270
     45 H16        29.2300   45.9676   34.7352 H         1 BIR         0.0457
     46 H17        29.8453   46.8787   33.3147 H         1 BIR         0.0457
     47 H18        30.3842   46.4090   36.6767 H         1 BIR         0.0560
     48 H19        32.4818   46.8585   37.8963 H         1 BIR         0.0609
     49 H20        34.6485   46.7752   34.1903 H         1 BIR         0.0609
     50 H21        32.5466   46.3388   32.9756 H         1 BIR         0.0560
     51 H22        36.0858   45.5936   35.7744 H         1 BIR         0.0615
     52 H23        38.1938   45.9945   36.9988 H         1 BIR         0.0615
     53 H24        38.2910   47.7220   38.7727 H         1 BIR         0.0610
     54 H25        36.2665   49.0413   39.3226 H         1 BIR         0.0615
     55 H26        34.1543   48.6341   38.1104 H         1 BIR         0.0615
@<TRIPOS>BOND
     1    1    2 1  
     2    2    3 1  
     3    2    4 1  
     4    4    5 ar 
     5    4    6 ar 
     6    4    7 1  
     7    7    8 1  
     8    8    9 1  
     9    8   17 1  
    10    9   10 2  
    11    9   11 am 
    12   11   12 1  
    13   12   13 1  
    14   12   14 1  
    15   14   15 ar 
    16   14   16 ar 
    17   17   18 1  
    18   18   19 ar 
    19   18   23 ar 
    20   19   20 ar 
    21   20   21 ar 
    22   21   22 ar 
    23   21   24 1  
    24   22   23 ar 
    25   24   25 ar 
    26   24   29 ar 
    27   25   26 ar 
    28   26   27 ar 
    29   27   28 ar 
    30   28   29 ar 
    31    1   30 1  
    32    1   31 1  
    33    1   32 1  
    34    2   33 1  
    35    3   34 1  
    36    3   35 1  
    37    3   36 1  
    38    7   37 1  
    39    7   38 1  
    40    8   39 1  
    41   11   40 1  
    42   12   41 1  
    43   13   42 1  
    44   13   43 1  
    45   13   44 1  
    46   17   45 1  
    47   17   46 1  
    48   19   47 1  
    49   20   48 1  
    50   22   49 1  
    51   23   50 1  
    52   25   51 1  
    53   26   52 1  
    54   27   53 1  
    55   28   54 1  
    56   29   55 1  
@<TRIPOS>SUBSTRUCTURE
     1 BIR         1

