REMARK  8 active torsions:
REMARK  status: ('A' for Active; 'I' for Inactive)
REMARK    1  A    between atoms: C21_3  and  N19_4 
REMARK    2  A    between atoms: C16_9  and  O14_10 
REMARK    3  A    between atoms: O14_10  and  C13_11 
REMARK    4  A    between atoms: C13_11  and  C11_12 
REMARK    5  A    between atoms: C11_12  and  O11_13 
REMARK    6  A    between atoms: C11_12  and  C10_15 
REMARK       I    between atoms: C10_15  and  N9_17 
REMARK    7  A    between atoms: N9_17  and  C6_18 
REMARK    8  A    between atoms: C4_25  and  C7_26 
ROOT
ATOM      1  C6  B66 d          27.625   3.565   3.692  0.00  0.00     0.035 A 
ATOM      2  C5  B66 d          26.282   3.266   3.912  0.00  0.00     0.047 A 
ATOM      3  C1  B66 d          27.994   4.883   3.450  0.00  0.00     0.031 A 
ATOM      4  C2  B66 d          27.023   5.877   3.431  0.00  0.00     0.026 A 
ATOM      5  C3  B66 d          25.685   5.565   3.654  0.00  0.00     0.059 A 
ATOM      6  C8  B66 d          24.765   6.662   3.625  0.00  0.00     0.100 C 
ATOM      7  N8  B66 d          24.039   7.538   3.594  0.00  0.00    -0.191 NA
ATOM      8  C4  B66 d          25.289   4.247   3.899  0.00  0.00     0.070 A 
ENDROOT
BRANCH   8   9
ATOM      9  C7  B66 d          23.830   3.849   4.195  0.00  0.00     0.419 C 
ATOM     10  F2  B66 d          23.559   4.057   5.480  0.00  0.00    -0.166 F 
ATOM     11  F3  B66 d          22.944   4.527   3.471  0.00  0.00    -0.166 F 
ATOM     12  F1  B66 d          23.591   2.565   3.940  0.00  0.00    -0.166 F 
ENDBRANCH   8   9
BRANCH   1  13
ATOM     13  N9  B66 d          28.594   2.650   3.708  0.00  0.00    -0.325 N 
ATOM     14  C10 B66 d          28.445   1.345   3.924  0.00  0.00     0.258 C 
ATOM     15  O10 B66 d          27.380   0.785   4.181  0.00  0.00    -0.270 OA
ATOM     16  H11 B66 d          29.525   2.976   3.541  0.00  0.00     0.169 HD
BRANCH  14  17
ATOM     17  C11 B66 d          29.761   0.566   3.883  0.00  0.00     0.156 C 
ATOM     18  C12 B66 d          29.601  -0.701   3.040  0.00  0.00     0.059 C 
BRANCH  17  19
ATOM     19  C13 B66 d          30.139   0.190   5.306  0.00  0.00     0.223 C 
BRANCH  19  20
ATOM     20  O14 B66 d          30.126   1.392   6.093  0.00  0.00    -0.348 OA
BRANCH  20  21
ATOM     21  C16 B66 d          29.886   1.182   7.416  0.00  0.00     0.069 A 
ATOM     22  C17 B66 d          28.997   2.025   8.078  0.00  0.00     0.039 A 
ATOM     23  C18 B66 d          28.769   1.874   9.442  0.00  0.00     0.039 A 
ATOM     24  C21 B66 d          29.431   0.879  10.156  0.00  0.00     0.103 A 
ATOM     25  C20 B66 d          30.322   0.036   9.496  0.00  0.00     0.039 A 
ATOM     26  C19 B66 d          30.548   0.187   8.131  0.00  0.00     0.039 A 
BRANCH  24  27
ATOM     27  N19 B66 d          29.191   0.714  11.454  0.00  0.00    -0.116 N 
ATOM     28  O20 B66 d          29.906  -0.264  12.196  0.00  0.00    -0.532 OA
ATOM     29  O19 B66 d          28.245   1.541  12.120  0.00  0.00    -0.532 OA
ENDBRANCH  24  27
ENDBRANCH  20  21
ENDBRANCH  19  20
ENDBRANCH  17  19
BRANCH  17  30
ATOM     30  O11 B66 d          30.779   1.406   3.333  0.00  0.00    -0.378 OA
ATOM     31  H7  B66 d          30.859   2.192   3.861  0.00  0.00     0.211 HD
ENDBRANCH  17  30
ENDBRANCH  14  17
ENDBRANCH   1  13
TORSDOF 8
