### 
### Created by X-TOOL on Fri Sep 26 17:34:40 2014
### 

@<TRIPOS>MOLECULE
2pmk_ligand
   55    59     1     0     0
SMALL
GAST_HUCK


@<TRIPOS>ATOM
      1 PB        -26.0760   14.9510  -10.1650 P.3       1 MOL         0.2069
      2 O1B       -24.9670   15.4220  -11.0580 O.co2     1 MOL        -0.5891
      3 O2B       -25.8920   15.1680   -8.5980 O.co2     1 MOL        -0.5891
      4 O3B       -26.4970   13.4650  -10.4300 O.co2     1 MOL        -0.5891
      5 PA        -27.9480   17.2120   -9.9790 P.3       1 MOL         0.3276
      6 O1A       -29.0280   16.7820   -9.0500 O.co2     1 MOL        -0.5556
      7 O2A       -26.8240   18.0500   -9.4950 O.co2     1 MOL        -0.5556
      8 O3A       -27.3760   15.8530  -10.5850 O.3       1 MOL        -0.1548
      9 O5'       -28.6440   17.9650  -11.2390 O.3       1 MOL        -0.2436
     10 C5'       -29.8320   17.5430  -11.8850 C.3       1 MOL         0.1131
     11 C4'       -30.2680   18.6170  -12.9200 C.3       1 MOL         0.1175
     12 O4'       -30.6810   19.7430  -12.1600 O.3       1 MOL        -0.3365
     13 C3'       -29.0160   18.9830  -13.7260 C.3       1 MOL         0.1010
     14 O3'       -29.2000   18.7130  -15.1650 O.3       1 MOL        -0.4077
     15 C2'       -28.8590   20.4730  -13.5700 C.3       1 MOL         0.1251
     16 O2'       -28.8320   20.9950  -14.9260 O.3       1 MOL        -0.4054
     17 C1'       -30.1000   20.9280  -12.8170 C.3       1 MOL         0.1996
     18 N9        -29.8930   21.7710  -11.6240 N.pl3     1 MOL        -0.1920
     19 C8        -29.1130   21.5010  -10.5720 C.2       1 MOL         0.1123
     20 N7        -29.2090   22.4740   -9.6750 N.2       1 MOL        -0.2958
     21 C5        -30.0510   23.3840  -10.1780 C.ar      1 MOL         0.1045
     22 C6        -30.5480   24.5890   -9.7250 C.ar      1 MOL         0.1298
     23 N6        -30.1580   25.0580   -8.5410 N.pl3     1 MOL        -0.3152
     24 N1        -31.4360   25.2530  -10.4960 N.ar      1 MOL        -0.2698
     25 C2        -31.8190   24.7730  -11.6800 C.ar      1 MOL         0.0533
     26 N3        -31.3810   23.6320  -12.1470 N.ar      1 MOL        -0.2714
     27 C4        -30.4870   22.9210  -11.4180 C.ar      1 MOL         0.1613
     28 C1F       -29.1400   19.9490  -15.9030 C.3       1 MOL         0.2110
     29 C2F       -27.9050   19.8910  -16.8250 C.2       1 MOL         0.2069
     30 C3F       -28.0080   20.1310  -18.2070 C.2       1 MOL         0.0587
     31 C4F       -29.2170   20.4180  -18.8340 C.2       1 MOL         0.2783
     32 C5F       -30.3800   20.5020  -18.1200 C.2       1 MOL         0.0740
     33 C6F       -30.4290   20.2740  -16.7440 C.3       1 MOL         0.2630
     34 N2F       -26.6960   19.6080  -16.3020 N.2       1 MOL         0.3015
     35 N4F       -29.3370   20.6530  -20.1580 N.2       1 MOL         0.3272
     36 N6F       -31.6490   20.3860  -16.2350 N.2       1 MOL         0.3140
     37 O2F       -26.4810   19.3620  -14.9020 O.2       1 MOL         0.1726
     38 O3F       -25.5430   19.5570  -17.1220 O.2       1 MOL         0.1726
     39 O4F       -30.5970   20.9550  -20.7010 O.2       1 MOL         0.1744
     40 O5F       -28.2400   20.6210  -20.9510 O.2       1 MOL         0.1744
     41 O6F       -32.7690   20.7020  -17.0350 O.2       1 MOL         0.1908
     42 O7F       -31.9170   20.2040  -14.8950 O.2       1 MOL         0.1908
     43 H1        -30.6281   17.4093  -11.1378 H         1 MOL         0.0648
     44 H2        -29.6497   16.5890  -12.4013 H         1 MOL         0.0648
     45 H3        -31.0742   18.2554  -13.5752 H         1 MOL         0.0650
     46 H4        -28.1373   18.4419  -13.3450 H         1 MOL         0.0633
     47 H5        -27.9436   20.7436  -13.0235 H         1 MOL         0.0661
     48 H6        -30.7937   21.4105  -13.5212 H         1 MOL         0.0995
     49 H7        -28.4908   20.6135  -10.4669 H         1 MOL         0.1349
     50 H8        -30.5250   25.9567   -8.1968 H         1 MOL         0.1820
     51 H9        -29.4894   24.5220   -7.9696 H         1 MOL         0.1820
     52 H10       -32.5178   25.3485  -12.2763 H         1 MOL         0.0996
     53 H11       -27.1035   20.0906  -18.8121 H         1 MOL         0.1304
     54 H12       -31.3006   20.7558  -18.6435 H         1 MOL         0.1572
     55 H13       -30.5766   19.1955  -16.9022 H         1 MOL         0.0988
@<TRIPOS>BOND
     1    1    2 ar 
     2    1    3 ar 
     3    1    4 ar 
     4    8    1 1  
     5    5    6 ar 
     6    5    7 ar 
     7    5    8 1  
     8    5    9 1  
     9    9   10 1  
    10   10   11 1  
    11   11   12 1  
    12   11   13 1  
    13   12   17 1  
    14   13   14 1  
    15   13   15 1  
    16   14   28 1  
    17   15   16 1  
    18   15   17 1  
    19   16   28 1  
    20   17   18 1  
    21   18   19 1  
    22   18   27 1  
    23   19   20 2  
    24   20   21 1  
    25   21   22 ar 
    26   21   27 ar 
    27   22   23 1  
    28   22   24 ar 
    29   24   25 ar 
    30   25   26 ar 
    31   26   27 ar 
    32   28   29 1  
    33   28   33 1  
    34   29   30 2  
    35   29   34 1  
    36   30   31 1  
    37   31   32 2  
    38   31   35 1  
    39   32   33 1  
    40   33   36 1  
    41   34   37 2  
    42   34   38 2  
    43   35   39 2  
    44   35   40 2  
    45   36   41 2  
    46   36   42 2  
    47   10   43 1  
    48   10   44 1  
    49   11   45 1  
    50   13   46 1  
    51   15   47 1  
    52   17   48 1  
    53   19   49 1  
    54   23   50 1  
    55   23   51 1  
    56   25   52 1  
    57   30   53 1  
    58   32   54 1  
    59   33   55 1  
@<TRIPOS>SUBSTRUCTURE
     1 MOL         1

