3qx8_ligand

Created by X-TOOL on Fri Sep 26 17:34:52 2014
 81 86  0  0  0  0  0  0  0  0999 V2000
   18.9070    3.2180  -21.5640  P 0  0  0  1  0  4
   18.7930    2.0660  -20.6310  O 0  0  0  1  0  1
   17.3990    3.6050  -22.0120  O 0  0  0  1  0  1
   19.8450    2.5750  -22.7780  O 0  0  0  1  0  2
   20.7840    3.6720  -23.6600  P 0  0  0  1  0  4
   22.1650    3.9440  -22.8280  O 0  0  0  1  0  1
   21.1810    2.9790  -24.8780  O 0  0  0  1  0  1
   20.0380    5.1520  -24.2190  O 0  0  0  1  0  2
   21.7570    6.5640  -16.4180  N 0  0  0  1  0  3
   21.9960    6.1530  -15.1430  C 0  0  0  2  0  3
   23.1920    6.4490  -14.7770  N 0  0  0  1  0  3
   23.7540    6.1290  -13.4800  C 0  0  0  4  0  4
   23.8290    7.0750  -15.7970  C 0  0  0  1  0  3
   25.1460    7.6260  -15.9900  C 0  0  0  1  0  3
   25.9880    7.5700  -15.1040  O 0  0  0  1  0  1
   25.4430    8.2060  -17.2040  N 0  0  0  2  0  3
   24.4940    8.2660  -18.2130  C 0  3  0  1  0  3
   24.8170    8.8520  -19.4110  N 0  0  0  3  0  3
   23.2680    7.7570  -18.0450  N 0  0  0  2  0  3
   22.8980    7.1680  -16.8720  C 0  0  0  1  0  3
   19.6040    4.3580  -20.6170  O 0  0  0  1  0  2
   18.5780    4.9700  -19.7760  C 0  0  0  3  0  4
   19.1930    5.6420  -18.5350  C 0  0  0  2  0  4
   20.3870    6.4270  -18.5450  O 0  0  0  1  0  2
   18.2280    6.5000  -17.6540  C 0  0  0  2  0  4
   17.1410    5.7650  -17.0910  O 0  0  0  2  0  2
   19.2330    7.0710  -16.6100  C 0  0  0  2  0  4
   18.8450    6.7680  -15.2620  O 0  0  0  2  0  2
   20.4940    6.3320  -17.1090  C 0  0  0  2  0  4
   19.9990    5.3060  -25.7620  P 0  0  0  1  0  4
   21.4840    4.8760  -26.4930  O 0  0  0  1  0  1
   18.8800    4.5010  -26.3940  O 0  0  0  1  0  1
   20.0730    6.9050  -26.1340  O 0  0  0  1  0  2
   19.6450    7.1640  -27.4930  C 0  0  0  3  0  4
   19.8350    8.6410  -27.6480  C 0  0  0  2  0  4
   21.1630    8.7080  -28.4030  O 0  0  0  1  0  2
   18.9910    9.2920  -28.7080  C 0  0  0  2  0  4
   18.5290   10.4330  -27.9690  O 0  0  0  2  0  2
   19.7610    9.7730  -29.9040  C 0  0  0  2  0  4
   19.3480   11.1070  -30.2490  O 0  0  0  2  0  2
   21.2460    9.7360  -29.5270  C 0  0  0  2  0  4
   21.6880    9.4030  -30.9110  N 0  0  0  1  0  3
   22.0500    8.2050  -31.4520  C 0  0  0  2  0  3
   22.2810    8.3640  -32.7460  N 0  0  0  1  0  2
   22.0780    9.6860  -33.0940  C 0  0  0  1  0  3
   22.1360   10.4660  -34.3280  C 0  0  0  1  0  3
   22.4080    9.9430  -35.4070  O 0  0  0  1  0  1
   21.8710   11.8180  -34.2720  N 0  0  0  2  0  3
   21.5530   12.4150  -33.0690  C 0  3  0  1  0  3
   21.3120   13.7700  -33.0300  N 0  0  0  3  0  3
   21.4720   11.7030  -31.9380  N 0  0  0  2  0  3
   21.7270   10.3620  -31.9140  C 0  0  0  1  0  3
   21.2690    5.6403  -14.5149  H 0  0  0  1  0  1
   22.9948    5.6220  -12.8664  H 0  0  0  1  0  1
   24.0712    7.0555  -12.9791  H 0  0  0  1  0  1
   24.6225    5.4666  -13.6100  H 0  0  0  1  0  1
   26.3539    8.5883  -17.3592  H 0  0  0  1  0  1
   24.1177    8.9006  -20.1657  H 0  0  0  1  0  1
   25.7588    9.2433  -19.5556  H 0  0  0  1  0  1
   22.5894    7.8112  -18.8179  H 0  0  0  1  0  1
   17.8731    4.1917  -19.4486  H 0  0  0  1  0  1
   18.0399    5.7285  -20.3634  H 0  0  0  1  0  1
   19.4555    4.7676  -17.9215  H 0  0  0  1  0  1
   17.7980    7.3183  -18.2502  H 0  0  0  1  0  1
   17.4817    5.0715  -16.5383  H 0  0  0  1  0  1
   19.3464    8.1611  -16.7038  H 0  0  0  1  0  1
   18.8053    5.8255  -15.1493  H 0  0  0  1  0  1
   20.3112    5.2699  -16.8885  H 0  0  0  1  0  1
   18.5894    6.8874  -27.6315  H 0  0  0  1  0  1
   20.2665    6.6107  -28.2124  H 0  0  0  1  0  1
   19.7989    9.1681  -26.6832  H 0  0  0  1  0  1
   18.1714    8.6342  -29.0330  H 0  0  0  1  0  1
   17.9649   10.9602  -28.5225  H 0  0  0  1  0  1
   19.5791    9.1066  -30.7600  H 0  0  0  1  0  1
   19.5127   11.6879  -29.5156  H 0  0  0  1  0  1
   21.7009   10.6715  -29.1694  H 0  0  0  1  0  1
   22.1356    7.2664  -30.9064  H 0  0  0  1  0  1
   21.9094   12.3681  -35.1062  H 0  0  0  1  0  1
   21.0739   14.2252  -32.1373  H 0  0  0  1  0  1
   21.3698   14.3284  -33.8936  H 0  0  0  1  0  1
   21.2104   12.1795  -31.0631  H 0  0  0  1  0  1
  1  2  2  0  0  2
  1  3  2  0  0  2
  1  4  1  0  0  2
 21  1  1  0  0  2
  4  5  1  0  0  2
  5  6  2  0  0  2
  5  7  2  0  0  2
  5  8  1  0  0  2
  8 30  1  0  0  2
  9 10  2  0  0  1
  9 20  1  0  0  1
 29  9  1  0  0  2
 10 11  1  0  0  1
 11 12  1  0  0  2
 13 11  1  0  0  1
 13 14  1  0  0  1
 20 13  2  0  0  1
 14 15  2  0  0  2
 14 16  1  0  0  1
 17 16  4  0  0  1
 17 18  2  0  0  2
 19 17  4  0  0  1
 20 19  1  0  0  1
 22 21  1  0  0  2
 23 22  1  0  0  2
 24 23  1  0  0  1
 23 25  1  0  0  1
 24 29  1  0  0  1
 25 26  1  0  0  2
 25 27  1  0  0  1
 27 28  1  0  0  2
 27 29  1  0  0  1
 30 31  2  0  0  2
 30 32  2  0  0  2
 30 33  1  0  0  2
 33 34  1  0  0  2
 34 35  1  0  0  2
 35 36  1  0  0  1
 35 37  1  0  0  1
 36 41  1  0  0  1
 37 38  1  0  0  2
 37 39  1  0  0  1
 39 40  1  0  0  2
 39 41  1  0  0  1
 41 42  1  0  0  2
 42 43  1  0  0  1
 42 52  1  0  0  1
 43 44  2  0  0  1
 44 45  1  0  0  1
 45 46  1  0  0  1
 45 52  2  0  0  1
 46 47  2  0  0  2
 46 48  1  0  0  1
 48 49  4  0  0  1
 49 50  2  0  0  2
 49 51  4  0  0  1
 51 52  1  0  0  1
 10 53  1  0  0  2
 12 54  1  0  0  2
 12 55  1  0  0  2
 12 56  1  0  0  2
 16 57  1  0  0  2
 18 58  1  0  0  2
 18 59  1  0  0  2
 19 60  1  0  0  2
 22 61  1  0  0  2
 22 62  1  0  0  2
 23 63  1  0  0  2
 25 64  1  0  0  2
 26 65  1  0  0  2
 27 66  1  0  0  2
 28 67  1  0  0  2
 29 68  1  0  0  2
 34 69  1  0  0  2
 34 70  1  0  0  2
 35 71  1  0  0  2
 37 72  1  0  0  2
 38 73  1  0  0  2
 39 74  1  0  0  2
 40 75  1  0  0  2
 41 76  1  0  0  2
 43 77  1  0  0  2
 48 78  1  0  0  2
 50 79  1  0  0  2
 50 80  1  0  0  2
 51 81  1  0  0  2
M  END
> <MOLECULAR_FORMULA>
C21H29N10O18P3

> <MOLECULAR_WEIGHT>
802.2

> <NUM_HB_ATOMS>
28 

> <NUM_ROTOR>
12 

> <XLOGP2>
-6.65

$$$$
