### 
### Created by X-TOOL on Fri Sep 26 17:34:15 2014
### 

@<TRIPOS>MOLECULE
1qk4_ligand
   34    36     1     0     0
SMALL
GAST_HUCK


@<TRIPOS>ATOM
      1 P          30.5970    4.8380    8.5200 P.3       1 IMP         0.2008
      2 O1P        31.6600    5.2520    7.5520 O.co2     1 IMP        -0.5537
      3 O2P        30.3900    3.3610    8.4050 O.co2     1 IMP        -0.5537
      4 O3P        30.9030    5.2830    9.9690 O.co2     1 IMP        -0.5537
      5 O5'        29.1890    5.5410    8.2060 O.3       1 IMP        -0.2734
      6 C5'        28.8100    6.5940    9.1010 C.3       1 IMP         0.1072
      7 C4'        27.4870    7.2540    8.7950 C.3       1 IMP         0.1182
      8 O4'        27.7650    7.9630    7.5420 O.3       1 IMP        -0.3362
      9 C3'        26.2470    6.4230    8.4930 C.3       1 IMP         0.1149
     10 O3'        25.4970    6.1000    9.6560 O.3       1 IMP        -0.3864
     11 C2'        25.4210    7.3240    7.6090 C.3       1 IMP         0.1389
     12 O2'        24.5140    8.1210    8.3380 O.3       1 IMP        -0.3835
     13 C1'        26.5070    8.1630    6.9000 C.3       1 IMP         0.2003
     14 N9         26.6910    7.6500    5.5170 N.pl3     1 IMP        -0.2045
     15 C8         27.6020    6.7690    4.9950 C.2       1 IMP         0.1004
     16 N7         27.4270    6.5730    3.7220 N.2       1 IMP        -0.3155
     17 C5         26.3640    7.3620    3.3670 C.2       1 IMP         0.1044
     18 C6         25.7050    7.5340    2.1180 C.2       1 IMP         0.2200
     19 O6         25.9980    7.0220    1.0390 O.2       1 IMP        -0.4066
     20 N1         24.5780    8.3890    2.1990 N.am      1 IMP        -0.2042
     21 C2         24.1900    9.0100    3.3740 C.2       1 IMP         0.1273
     22 N3         24.8050    8.8160    4.5500 N.2       1 IMP        -0.2683
     23 C4         25.8620    8.0070    4.4740 C.2       1 IMP         0.1354
     24 H1         29.5917    7.3672    9.0669 H         1 IMP         0.0639
     25 H2         28.7537    6.1739   10.1160 H         1 IMP         0.0639
     26 H3         27.2446    7.9463    9.6147 H         1 IMP         0.0650
     27 H4         26.5245    5.4964    7.9692 H         1 IMP         0.0648
     28 H5         25.2812    6.8980   10.1241 H         1 IMP         0.2100
     29 H6         24.8530    6.7303    6.8776 H         1 IMP         0.0677
     30 H7         23.8677    7.5630    8.7546 H         1 IMP         0.2101
     31 H8         26.2276    9.2269    6.8973 H         1 IMP         0.1001
     32 H9         28.3840    6.2877    5.5805 H         1 IMP         0.1213
     33 H10        24.0397    8.5508    1.3719 H         1 IMP         0.2557
     34 H11        23.3412    9.6915    3.3417 H         1 IMP         0.1493
@<TRIPOS>BOND
     1    1    5 1  
     2    1    4 ar 
     3    1    3 ar 
     4    1    2 ar 
     5    5    6 1  
     6    6    7 1  
     7    7    9 1  
     8    7    8 1  
     9    8   13 1  
    10   13   14 1  
    11   13   11 1  
    12   11   12 1  
    13   11    9 1  
    14    9   10 1  
    15   14   23 1  
    16   14   15 1  
    17   15   16 2  
    18   16   17 1  
    19   17   23 2  
    20   17   18 1  
    21   18   20 am 
    22   18   19 2  
    23   20   21 am 
    24   21   22 2  
    25   22   23 1  
    26    6   24 1  
    27    6   25 1  
    28    7   26 1  
    29    9   27 1  
    30   10   28 1  
    31   11   29 1  
    32   12   30 1  
    33   13   31 1  
    34   15   32 1  
    35   20   33 1  
    36   21   34 1  
@<TRIPOS>SUBSTRUCTURE
     1 IMP         1

