### 
### Created by X-TOOL on Fri Sep 26 17:34:33 2014
### 

@<TRIPOS>MOLECULE
2gzl_ligand
   73    76     1     0     0
SMALL
GAST_HUCK


@<TRIPOS>ATOM
      1 C13         2.0430   21.1520   38.9010 C.3       1 MOL         0.0171
      2 N5          3.2500   20.9920   38.3810 N.pl3     1 MOL        -0.3105
      3 C12         4.3100   21.3390   39.0950 C.3       1 MOL         0.0171
      4 C11         3.3870   20.4910   37.1420 C.ar      1 MOL         0.0537
      5 C10         3.1060   21.3230   36.0560 C.ar      1 MOL        -0.0457
      6 C9          3.2310   20.8520   34.7520 C.ar      1 MOL        -0.0783
      7 C8          3.6350   19.5390   34.5250 C.ar      1 MOL        -0.0696
      8 C7          3.9210   18.6770   35.5890 C.ar      1 MOL        -0.0026
      9 C6          3.7930   19.1610   36.9080 C.ar      1 MOL         0.0095
     10 C5          4.0760   18.3050   37.9800 C.ar      1 MOL        -0.0544
     11 C4          4.4790   16.9910   37.7530 C.ar      1 MOL        -0.0621
     12 C3          4.6070   16.5170   36.4490 C.ar      1 MOL        -0.0380
     13 C2          4.3310   17.3450   35.3560 C.ar      1 MOL         0.1102
     14 S1          4.5090   16.6820   33.8120 S.o2      1 MOL         0.0673
     15 O3          3.9250   15.2930   33.7970 O.2       1 MOL        -0.1507
     16 O4          3.8010   17.5150   32.7840 O.2       1 MOL        -0.1507
     17 N4          6.1170   16.5780   33.4340 N.am      1 MOL        -0.2452
     18 C1          6.3820   16.8480   32.0100 C.3       1 MOL         0.0550
     19 C9          5.9900   15.6310   31.1720 C.3       1 MOL         0.1008
     20 O2          7.1550   14.8740   30.8370 O.3       1 MOL        -0.2487
     21 P2          7.6500   14.7930   29.2970 P.3       1 MOL         0.2971
     22 O1          6.7500   15.6350   28.4650 O.co2     1 MOL        -0.6127
     23 O9          9.1180   15.0230   29.2310 O.co2     1 MOL        -0.6127
     24 O8          7.3720   13.2060   28.9570 O.3       1 MOL        -0.1319
     25 P1          8.5080   12.0420   28.8410 P.3       1 MOL         0.2972
     26 O7          7.8000   10.7440   28.8520 O.co2     1 MOL        -0.6127
     27 O6          9.4520   12.3280   27.7470 O.co2     1 MOL        -0.6127
     28 O5          9.3160   12.1810   30.2210 O.3       1 MOL        -0.2476
     29 C14         8.9290   11.4290   31.3920 C.3       1 MOL         0.1128
     30 C8         10.1370   11.0050   32.2330 C.3       1 MOL         0.1191
     31 O2         10.4520    9.6410   31.9150 O.3       1 MOL        -0.3345
     32 C7         11.3670   11.8100   31.8230 C.3       1 MOL         0.1152
     33 O4         11.4500   12.9790   32.6340 O.3       1 MOL        -0.3864
     34 C6         12.5080   10.8680   32.1440 C.3       1 MOL         0.1409
     35 O3         12.9120   11.0640   33.4930 O.3       1 MOL        -0.3834
     36 C5         11.8800    9.4760   32.0220 C.3       1 MOL         0.2119
     37 N3         12.2910    8.7070   30.8180 N.am      1 MOL        -0.1649
     38 C4         11.9230    9.0820   29.5070 C.2       1 MOL         0.0795
     39 C3         12.3470    8.2880   28.4430 C.2       1 MOL         0.0083
     40 C2         13.1070    7.1480   28.6980 C.2       1 MOL         0.0850
     41 N2         13.5230    6.3730   27.7000 N.pl3     1 MOL        -0.3156
     42 N1         13.4360    6.8090   29.9500 N.2       1 MOL        -0.2774
     43 C1         13.0570    7.5510   30.9980 C.2       1 MOL         0.2512
     44 O1         13.3880    7.2080   32.1250 O.2       1 MOL        -0.4066
     45 H1          2.1329   21.5706   39.9143 H         1 MOL         0.0483
     46 H2          1.5330   20.1786   38.9503 H         1 MOL         0.0483
     47 H3          1.4603   21.8398   38.2706 H         1 MOL         0.0483
     48 H4          5.2235   21.1404   38.5153 H         1 MOL         0.0483
     49 H5          4.3323   20.7540   40.0263 H         1 MOL         0.0483
     50 H6          4.2547   22.4108   39.3364 H         1 MOL         0.0483
     51 H7          2.7878   22.3445   36.2300 H         1 MOL         0.0463
     52 H8          3.0143   21.5060   33.9151 H         1 MOL         0.0573
     53 H9          3.7295   19.1788   33.5070 H         1 MOL         0.0468
     54 H10         3.9804   18.6688   38.9967 H         1 MOL         0.0631
     55 H11         4.6930   16.3373   38.5908 H         1 MOL         0.0586
     56 H12         4.9242   15.4944   36.2796 H         1 MOL         0.0632
     57 H13         6.8302   16.3563   34.0989 H         1 MOL         0.1673
     58 H14         7.4528   17.0578   31.8709 H         1 MOL         0.0502
     59 H15         5.7927   17.7190   31.6873 H         1 MOL         0.0502
     60 H16         5.4963   15.9680   30.2486 H         1 MOL         0.0637
     61 H17         5.2981   14.9992   31.7482 H         1 MOL         0.0637
     62 H18         8.3871   10.5273   31.0708 H         1 MOL         0.0648
     63 H19         8.2679   12.0531   32.0112 H         1 MOL         0.0648
     64 H20         9.9225   11.1286   33.3048 H         1 MOL         0.0651
     65 H21        11.3475   12.0798   30.7568 H         1 MOL         0.0648
     66 H22        11.5227   12.7254   33.5466 H         1 MOL         0.2100
     67 H23        13.3558   11.0006   31.4557 H         1 MOL         0.0678
     68 H24        13.1977   11.9625   33.6095 H         1 MOL         0.2101
     69 H25        12.1337    8.8961   32.9216 H         1 MOL         0.1026
     70 H26        11.3210    9.9723   29.3314 H         1 MOL         0.1328
     71 H27        12.0865    8.5563   27.4202 H         1 MOL         0.0373
     72 H28        14.0842    5.5328   27.8999 H         1 MOL         0.1833
     73 H29        13.2839    6.6132   26.7273 H         1 MOL         0.1833
@<TRIPOS>BOND
     1    1    2 1  
     2    2    3 1  
     3    2    4 1  
     4    4    5 ar 
     5    4    9 ar 
     6    5    6 ar 
     7    6    7 ar 
     8    7    8 ar 
     9    8    9 ar 
    10    8   13 ar 
    11    9   10 ar 
    12   10   11 ar 
    13   11   12 ar 
    14   12   13 ar 
    15   13   14 1  
    16   14   15 2  
    17   14   16 2  
    18   14   17 am 
    19   17   18 1  
    20   18   19 1  
    21   19   20 1  
    22   20   21 1  
    23   21   22 ar 
    24   21   23 ar 
    25   21   24 1  
    26   24   25 1  
    27   25   26 ar 
    28   25   27 ar 
    29   25   28 1  
    30   28   29 1  
    31   29   30 1  
    32   30   31 1  
    33   30   32 1  
    34   31   36 1  
    35   32   33 1  
    36   32   34 1  
    37   34   35 1  
    38   34   36 1  
    39   36   37 1  
    40   37   38 1  
    41   37   43 am 
    42   38   39 2  
    43   39   40 1  
    44   40   41 1  
    45   40   42 2  
    46   42   43 1  
    47   43   44 2  
    48    1   45 1  
    49    1   46 1  
    50    1   47 1  
    51    3   48 1  
    52    3   49 1  
    53    3   50 1  
    54    5   51 1  
    55    6   52 1  
    56    7   53 1  
    57   10   54 1  
    58   11   55 1  
    59   12   56 1  
    60   17   57 1  
    61   18   58 1  
    62   18   59 1  
    63   19   60 1  
    64   19   61 1  
    65   29   62 1  
    66   29   63 1  
    67   30   64 1  
    68   32   65 1  
    69   33   66 1  
    70   34   67 1  
    71   35   68 1  
    72   36   69 1  
    73   38   70 1  
    74   39   71 1  
    75   41   72 1  
    76   41   73 1  
@<TRIPOS>SUBSTRUCTURE
     1 MOL         1

