### 
### Created by X-TOOL on Fri Sep 26 17:34:34 2014
### 

@<TRIPOS>MOLECULE
2fxv_ligand
   36    38     1     0     0
SMALL
GAST_HUCK


@<TRIPOS>ATOM
      1 P          12.6590   14.4740    3.5030 P.3       1 MOL         0.2008
      2 O1P        12.2320   13.9340    4.9310 O.co2     1 MOL        -0.5537
      3 O2P        13.1780   13.3790    2.6650 O.co2     1 MOL        -0.5537
      4 O3P        11.4670   15.1680    3.0130 O.co2     1 MOL        -0.5537
      5 O5         13.7590   15.5460    3.7430 O.3       1 MOL        -0.2734
      6 C5         13.5470   16.7260    4.4830 C.3       1 MOL         0.1072
      7 C4         14.5560   17.0370    5.5450 C.3       1 MOL         0.1182
      8 O4         15.7680   17.2010    4.7830 O.3       1 MOL        -0.3364
      9 C3         14.3770   18.3820    6.3030 C.3       1 MOL         0.1149
     10 O3         14.3820   18.0940    7.7590 O.3       1 MOL        -0.3864
     11 C2         15.5370   19.2450    5.8950 C.3       1 MOL         0.1387
     12 O2         16.4000   19.6660    6.9470 O.3       1 MOL        -0.3836
     13 C1         16.3470   18.5020    4.8670 C.3       1 MOL         0.1992
     14 N9         16.2410   18.9010    3.4150 N.pl3     1 MOL        -0.2101
     15 C8         15.7090   18.3920    2.2660 C.2       1 MOL         0.0957
     16 N7         15.8760   19.1140    1.1880 N.2       1 MOL        -0.3235
     17 C5         16.5800   20.2140    1.5990 C.2       1 MOL         0.0926
     18 C6         17.0800   21.3340    0.9930 C.2       1 MOL         0.2135
     19 O6         16.9360   21.5310   -0.2320 O.2       1 MOL        -0.4091
     20 N1         17.7950   22.3300    1.7430 N.am      1 MOL        -0.1839
     21 C2         18.0170   22.1990    3.1420 C.2       1 MOL         0.2340
     22 N2         18.6750   23.1200    3.8290 N.pl3     1 MOL        -0.2807
     23 N3         17.5220   21.0620    3.7920 N.2       1 MOL        -0.2765
     24 C4         16.8060   20.0780    3.0000 C.2       1 MOL         0.1159
     25 H1         12.5639   16.6438    4.9695 H         1 MOL         0.0639
     26 H2         13.5365   17.5677    3.7749 H         1 MOL         0.0639
     27 H3         14.6166   16.2087    6.2663 H         1 MOL         0.0650
     28 H4         13.4295   18.8664    6.0244 H         1 MOL         0.0648
     29 H5         15.2081   17.6901    7.9980 H         1 MOL         0.2100
     30 H6         15.1230   20.1519    5.4302 H         1 MOL         0.0676
     31 H7         16.7738   18.9035    7.3728 H         1 MOL         0.2101
     32 H8         17.4007   18.4879    5.1825 H         1 MOL         0.0998
     33 H9         15.1773   17.4418    2.2476 H         1 MOL         0.1179
     34 H10        18.1460   23.1372    1.2684 H         1 MOL         0.2515
     35 H11        18.8218   23.0003    4.8414 H         1 MOL         0.1897
     36 H12        19.0401   23.9561    3.3510 H         1 MOL         0.1897
@<TRIPOS>BOND
     1    1    2 ar 
     2    1    3 ar 
     3    1    4 ar 
     4    1    5 1  
     5    5    6 1  
     6    6    7 1  
     7    7    8 1  
     8    7    9 1  
     9    8   13 1  
    10    9   10 1  
    11    9   11 1  
    12   11   12 1  
    13   11   13 1  
    14   13   14 1  
    15   14   15 1  
    16   14   24 1  
    17   15   16 2  
    18   16   17 1  
    19   17   18 1  
    20   17   24 2  
    21   18   19 2  
    22   18   20 am 
    23   20   21 am 
    24   21   22 1  
    25   21   23 2  
    26   23   24 1  
    27    6   25 1  
    28    6   26 1  
    29    7   27 1  
    30    9   28 1  
    31   10   29 1  
    32   11   30 1  
    33   12   31 1  
    34   13   32 1  
    35   15   33 1  
    36   20   34 1  
    37   22   35 1  
    38   22   36 1  
@<TRIPOS>SUBSTRUCTURE
     1 MOL         1

