### 
### Created by X-TOOL on Fri Sep 26 17:35:00 2014
### 

@<TRIPOS>MOLECULE
4gr0_ligand
   74    77     1     0     0
SMALL
GAST_HUCK


@<TRIPOS>ATOM
      1 O4         -9.6010   26.0450   -4.7330 O.2       1 R4B        -0.3964
      2 N1         -6.1200   22.2700   -5.8680 N.2       1 R4B        -0.1517
      3 O1         -7.2270   22.5580   -5.1980 O.3       1 R4B        -0.1669
      4 C25        -8.6420   26.3650   -4.0050 C.2       1 R4B         0.1851
      5 C17        -8.1980   25.4570   -2.9020 C.3       1 R4B         0.0781
      6 C16        -8.2510   24.0430   -3.4520 C.3       1 R4B         0.0421
      7 C14        -5.7580   23.9730   -4.4250 C.2       1 R4B        -0.0269
      8 C13        -5.1900   23.1350   -5.4020 C.2       1 R4B         0.0432
      9 C12        -3.7880   23.1050   -5.8850 C.ar      1 R4B        -0.0148
     10 C11        -3.4430   22.2520   -6.9280 C.ar      1 R4B        -0.0544
     11 C10        -2.1190   22.2030   -7.3680 C.ar      1 R4B        -0.0543
     12 C7         -1.1650   23.0020   -6.7430 C.ar      1 R4B        -0.0186
     13 C8         -1.5210   23.8260   -5.6810 C.ar      1 R4B        -0.0543
     14 C9         -2.8330   23.8780   -5.2410 C.ar      1 R4B        -0.0544
     15 C15        -7.0930   23.5790   -4.3140 C.2       1 R4B         0.1412
     16 CL1         3.1990   20.4700   -8.3220 Cl        1 R4B        -0.0707
     17 C1          2.3140   21.9380   -7.8040 C.ar      1 R4B         0.0409
     18 C2          0.9530   21.8600   -7.5000 C.ar      1 R4B        -0.0403
     19 C3          2.9980   23.1440   -7.7060 C.ar      1 R4B        -0.0479
     20 C4          2.3280   24.2900   -7.3030 C.ar      1 R4B        -0.0609
     21 C5          0.9740   24.2160   -7.0030 C.ar      1 R4B        -0.0541
     22 C6          0.2800   23.0120   -7.1180 C.ar      1 R4B        -0.0179
     23 C18        -9.2530   25.5590   -1.8010 C.3       1 R4B         0.0357
     24 P1         -8.7640   24.8480   -0.2020 P.3       1 R4B         0.0120
     25 O2         -7.3260   25.2370    0.0620 O.co2     1 R4B        -0.6187
     26 O3         -9.0670   23.3730   -0.1970 O.co2     1 R4B        -0.6187
     27 C19        -9.7780   25.5930    1.0060 C.ar      1 R4B         0.0317
     28 C20        -9.2110   25.9490    2.2180 C.ar      1 R4B        -0.0373
     29 C21       -10.0000   26.5340    3.2030 C.ar      1 R4B        -0.0462
     30 C22       -11.3470   26.7440    2.9640 C.ar      1 R4B         0.0175
     31 BR1       -12.3740   27.5440    4.3510 Br        1 R4B        -0.0459
     32 C23       -11.9210   26.3720    1.7500 C.ar      1 R4B        -0.0462
     33 C24       -11.1340   25.7940    0.7560 C.ar      1 R4B        -0.0373
     34 N2         -7.9810   27.5010   -4.1610 N.am      1 R4B        -0.2655
     35 C26        -8.4690   28.5010   -5.1060 C.3       1 R4B         0.1281
     36 C30        -7.7640   28.4380   -6.4610 C.2       1 R4B         0.2036
     37 O7         -6.6020   28.0250   -6.5580 O.2       1 R4B        -0.3944
     38 C27        -8.3560   29.8920   -4.5070 C.3       1 R4B        -0.0244
     39 N3         -8.4740   28.8340   -7.5120 N.am      1 R4B        -0.2640
     40 C31        -7.8460   28.9790   -8.8150 C.3       1 R4B         0.1279
     41 C35        -6.7690   30.0600   -8.7190 C.2       1 R4B         0.1989
     42 O10        -5.6020   29.8270   -9.0490 O.2       1 R4B        -0.3947
     43 C32        -8.8850   29.3380   -9.8750 C.3       1 R4B        -0.0244
     44 N4         -7.1650   31.2380   -8.2450 N.am      1 R4B        -0.2990
     45 H1         -7.1944   25.7158   -2.5334 H         1 R4B         0.0580
     46 H2         -9.1655   23.9599   -4.0577 H         1 R4B         0.0513
     47 H3         -8.3164   23.3586   -2.5934 H         1 R4B         0.0513
     48 H4         -5.2591   24.7658   -3.8696 H         1 R4B         0.0289
     49 H5         -4.1970   21.6295   -7.3960 H         1 R4B         0.0616
     50 H6         -1.8369   21.5507   -8.1865 H         1 R4B         0.0622
     51 H7         -0.7658   24.4322   -5.1939 H         1 R4B         0.0622
     52 H8         -3.1093   24.5126   -4.4067 H         1 R4B         0.0616
     53 H9          0.4296   20.9127   -7.5616 H         1 R4B         0.0628
     54 H10         4.0545   23.1891   -7.9444 H         1 R4B         0.0622
     55 H11         2.8558   25.2334   -7.2231 H         1 R4B         0.0617
     56 H12         0.4496   25.1062   -6.6750 H         1 R4B         0.0624
     57 H13       -10.1572   25.0356   -2.1451 H         1 R4B         0.0485
     58 H14        -9.4823   26.6235   -1.6454 H         1 R4B         0.0485
     59 H15        -8.1568   25.7726    2.3985 H         1 R4B         0.0682
     60 H16        -9.5627   26.8235    4.1517 H         1 R4B         0.0655
     61 H17       -12.9794   26.5322    1.5790 H         1 R4B         0.0655
     62 H18       -11.5687   25.5060   -0.1944 H         1 R4B         0.0682
     63 H19        -7.1495   27.6738   -3.6330 H         1 R4B         0.1883
     64 H20        -9.5351   28.2949   -5.2816 H         1 R4B         0.0797
     65 H21        -8.7270   30.6337   -5.2297 H         1 R4B         0.0277
     66 H22        -7.3030   30.1051   -4.2708 H         1 R4B         0.0277
     67 H23        -8.9562   29.9448   -3.5867 H         1 R4B         0.0277
     68 H24        -9.4481   29.0339   -7.4058 H         1 R4B         0.1883
     69 H25        -7.3735   28.0258   -9.0947 H         1 R4B         0.0797
     70 H26        -8.3907   29.4431  -10.8521 H         1 R4B         0.0277
     71 H27        -9.3706   30.2876   -9.6057 H         1 R4B         0.0277
     72 H28        -9.6421   28.5419   -9.9308 H         1 R4B         0.0277
     73 H29        -6.5091   31.9877   -8.1570 H         1 R4B         0.1815
     74 H30        -8.1187   31.3740   -7.9766 H         1 R4B         0.1815
@<TRIPOS>BOND
     1    4    1 2  
     2    2    3 1  
     3    8    2 2  
     4   15    3 1  
     5    5    4 1  
     6    4   34 am 
     7    6    5 1  
     8    5   23 1  
     9   15    6 1  
    10    8    7 1  
    11    7   15 2  
    12    9    8 1  
    13   10    9 ar 
    14   14    9 ar 
    15   11   10 ar 
    16   12   11 ar 
    17   12   13 ar 
    18   22   12 1  
    19   13   14 ar 
    20   17   16 1  
    21   18   17 ar 
    22   17   19 ar 
    23   18   22 ar 
    24   19   20 ar 
    25   20   21 ar 
    26   21   22 ar 
    27   23   24 1  
    28   24   25 ar 
    29   24   26 ar 
    30   24   27 1  
    31   27   28 ar 
    32   27   33 ar 
    33   28   29 ar 
    34   29   30 ar 
    35   30   31 1  
    36   30   32 ar 
    37   32   33 ar 
    38   34   35 1  
    39   35   36 1  
    40   35   38 1  
    41   36   37 2  
    42   36   39 am 
    43   39   40 1  
    44   40   41 1  
    45   40   43 1  
    46   41   42 2  
    47   41   44 am 
    48    5   45 1  
    49    6   46 1  
    50    6   47 1  
    51    7   48 1  
    52   10   49 1  
    53   11   50 1  
    54   13   51 1  
    55   14   52 1  
    56   18   53 1  
    57   19   54 1  
    58   20   55 1  
    59   21   56 1  
    60   23   57 1  
    61   23   58 1  
    62   28   59 1  
    63   29   60 1  
    64   32   61 1  
    65   33   62 1  
    66   34   63 1  
    67   35   64 1  
    68   38   65 1  
    69   38   66 1  
    70   38   67 1  
    71   39   68 1  
    72   40   69 1  
    73   43   70 1  
    74   43   71 1  
    75   43   72 1  
    76   44   73 1  
    77   44   74 1  
@<TRIPOS>SUBSTRUCTURE
     1 R4B         1

