### 
### Created by X-TOOL on Fri Sep 26 17:34:45 2014
### 

@<TRIPOS>MOLECULE
2wjg_ligand
   41    43     1     0     0
SMALL
GAST_HUCK


@<TRIPOS>ATOM
      1 PB         -7.5630   25.9100  -19.0170 P.3       1 GDP         0.2069
      2 O1B        -8.4760   27.1210  -18.9600 O.co2     1 GDP        -0.5891
      3 O2B        -8.3690   24.6790  -18.6650 O.co2     1 GDP        -0.5891
      4 O3B        -6.4330   26.1080  -18.0200 O.co2     1 GDP        -0.5891
      5 O3A        -6.9220   25.6130  -20.4570 O.3       1 GDP        -0.1548
      6 PA         -6.7230   26.6880  -21.6380 P.3       1 GDP         0.3276
      7 O1A        -5.9680   27.9350  -21.2680 O.co2     1 GDP        -0.5556
      8 O2A        -8.0690   27.0330  -22.2390 O.co2     1 GDP        -0.5556
      9 O5'        -5.8060   25.7750  -22.6040 O.3       1 GDP        -0.2436
     10 C5'        -4.5320   25.3640  -22.1040 C.3       1 GDP         0.1132
     11 C4'        -3.6540   24.9750  -23.2810 C.3       1 GDP         0.1190
     12 O4'        -4.2450   23.8810  -23.9930 O.3       1 GDP        -0.3347
     13 C3'        -3.5810   26.1390  -24.2490 C.3       1 GDP         0.1151
     14 O3'        -2.2350   26.1760  -24.7270 O.3       1 GDP        -0.3864
     15 C2'        -4.5350   25.7580  -25.3580 C.3       1 GDP         0.1407
     16 O2'        -4.1710   26.2730  -26.6410 O.3       1 GDP        -0.3835
     17 C1'        -4.3930   24.2570  -25.3580 C.3       1 GDP         0.2218
     18 N9         -5.6040   23.6470  -25.9170 N.pl3     1 GDP        -0.0954
     19 C8         -6.8760   23.9660  -25.6400 C.2       1 GDP         0.1855
     20 N7         -7.7220   23.1740  -26.3450 N.2       1 GDP        -0.1929
     21 C5         -6.9740   22.3250  -27.0840 C.2       1 GDP         0.2558
     22 C6         -7.2300   21.2320  -28.0600 C.2       1 GDP         0.2628
     23 O6         -8.4120   20.8940  -28.3620 O.2       1 GDP        -0.3594
     24 N1         -6.1560   20.6200  -28.5960 N.am      1 GDP        -0.2478
     25 C2         -4.8900   20.9760  -28.2730 C.cat     1 GDP         0.2041
     26 N2         -3.8570   20.3210  -28.8340 N.pl3     1 GDP        -0.3327
     27 N3         -4.5840   21.9710  -27.3990 N.pl3     1 GDP        -0.1901
     28 C4         -5.5780   22.6480  -26.7840 C.2       1 GDP         0.3268
     29 H1         -4.6575   24.5009  -21.4337 H         1 GDP         0.0648
     30 H2         -4.0655   26.1928  -21.5513 H         1 GDP         0.0648
     31 H3         -2.6489   24.7033  -22.9260 H         1 GDP         0.0651
     32 H4         -3.8636   27.0942  -23.7824 H         1 GDP         0.0648
     33 H5         -2.1380   26.8941  -25.3415 H         1 GDP         0.2100
     34 H6         -5.5615   26.0724  -25.1184 H         1 GDP         0.0677
     35 H7         -3.3136   25.9424  -26.8821 H         1 GDP         0.2101
     36 H8         -3.5140   23.9489  -25.9432 H         1 GDP         0.1021
     37 H9         -7.1857   24.7483  -24.9486 H         1 GDP         0.1823
     38 H10        -6.2982   19.8796  -29.2530 H         1 GDP         0.1819
     39 H11        -2.8900   20.5836  -28.5954 H         1 GDP         0.1774
     40 H12        -4.0333   19.5570  -29.5020 H         1 GDP         0.1774
     41 H13        -3.6001   22.2073  -27.2068 H         1 GDP         0.2519
@<TRIPOS>BOND
     1    1    2 ar 
     2    1    3 ar 
     3    1    4 ar 
     4    1    5 1  
     5    5    6 1  
     6    6    7 ar 
     7    6    8 ar 
     8    6    9 1  
     9    9   10 1  
    10   10   11 1  
    11   11   12 1  
    12   11   13 1  
    13   12   17 1  
    14   13   14 1  
    15   13   15 1  
    16   15   16 1  
    17   15   17 1  
    18   17   18 1  
    19   18   19 1  
    20   18   28 1  
    21   19   20 2  
    22   20   21 1  
    23   21   22 1  
    24   21   28 2  
    25   22   23 2  
    26   22   24 am 
    27   24   25 ar 
    28   25   26 ar 
    29   25   27 ar 
    30   27   28 1  
    31   10   29 1  
    32   10   30 1  
    33   11   31 1  
    34   13   32 1  
    35   14   33 1  
    36   15   34 1  
    37   16   35 1  
    38   17   36 1  
    39   19   37 1  
    40   24   38 1  
    41   26   39 1  
    42   26   40 1  
    43   27   41 1  
@<TRIPOS>SUBSTRUCTURE
     1 GDP         1

