### 
### Created by X-TOOL on Sun Nov 13 14:29:30 2016
### 

@<TRIPOS>MOLECULE
4ryd_ligand
  116   117     1     0     0
SMALL
GAST_HUCK


@<TRIPOS>ATOM
      1 C1         31.8760   26.5350   -9.2170 C.3       1 MOL         0.0674
      2 N1         35.3160   22.1990   -5.7460 N.pl3     1 MOL        -0.2619
      3 O1         29.7470   25.8850   -8.3520 O.2       1 MOL        -0.3942
      4 C2         30.6950   26.6620   -8.3100 C.2       1 MOL         0.1887
      5 N2         34.2510   23.3930   -4.0530 N.pl3     1 MOL        -0.2847
      6 C3         32.9860   25.7230   -8.6220 C.ar      1 MOL        -0.0310
      7 N3         34.0950   21.0890   -4.1510 N.pl3     1 MOL        -0.2847
      8 C4         32.9090   24.3200   -8.6340 C.ar      1 MOL        -0.0643
      9 C5         34.0380   26.3430   -7.9250 C.ar      1 MOL        -0.0643
     10 C6         33.8640   23.5470   -7.9400 C.ar      1 MOL        -0.0631
     11 C7         34.9160   24.1760   -7.2190 C.ar      1 MOL        -0.0134
     12 C8         34.9940   25.5780   -7.2320 C.ar      1 MOL        -0.0631
     13 C9         35.9040   23.3630   -6.4230 C.3       1 MOL         0.0933
     14 C10        34.5590   22.2330   -4.6470 C.cat     1 MOL         0.2900
     15 N          30.8120   27.6490   -7.4280 N.am      1 MOL        -0.2641
     16 CA         29.7860   27.9390   -6.4370 C.3       1 MOL         0.1311
     17 C          29.2380   29.3470   -6.6350 C.2       1 MOL         0.2039
     18 O          30.0030   30.3040   -6.7290 O.2       1 MOL        -0.3944
     19 CB         30.4020   27.7430   -5.0540 C.3       1 MOL        -0.0092
     20 CG         30.9940   26.3340   -4.8620 C.3       1 MOL        -0.0156
     21 CD         29.8850   25.2910   -4.8800 C.3       1 MOL         0.0627
     22 NE         30.3430   23.9110   -4.7190 N.pl3     1 MOL        -0.2723
     23 CZ         30.4360   23.0350   -5.7190 C.cat     1 MOL         0.2882
     24 NH1        30.8470   21.7900   -5.4950 N.pl3     1 MOL        -0.2849
     25 NH2        30.1250   23.4100   -6.9560 N.pl3     1 MOL        -0.2849
     26 N          27.9100   29.4630   -6.6950 N.am      1 MOL        -0.2632
     27 CA         27.2750   30.6220   -6.8840 C.3       1 MOL         0.1358
     28 CB         26.5090   30.5740   -8.2750 C.3       1 MOL         0.0026
     29 CG1        25.9750   31.9680   -8.6540 C.3       1 MOL        -0.0558
     30 CG2        27.4640   30.1090   -9.3740 C.3       1 MOL        -0.0558
     31 CG3        25.3460   29.5650   -8.2240 C.3       1 MOL        -0.0558
     32 C          26.3010   31.0370   -5.7610 C.2       1 MOL         0.2044
     33 O          25.6880   30.2100   -5.1160 O.2       1 MOL        -0.3944
     34 N          26.1870   32.3570   -5.5780 N.am      1 MOL        -0.2637
     35 CA         25.2840   32.9070   -4.5560 C.3       1 MOL         0.1311
     36 C          23.8890   32.5380   -5.0740 C.2       1 MOL         0.2035
     37 O          23.5870   32.7330   -6.2510 O.2       1 MOL        -0.3944
     38 CB         25.4060   34.4330   -4.4600 C.3       1 MOL        -0.0092
     39 CG         26.7080   34.9410   -3.8820 C.3       1 MOL        -0.0156
     40 CD         26.7550   36.4610   -3.9760 C.3       1 MOL         0.0627
     41 NE         27.9950   37.0300   -3.4540 N.pl3     1 MOL        -0.2723
     42 CZ         29.1870   36.8720   -4.0210 C.cat     1 MOL         0.2882
     43 NH1        29.3100   36.1500   -5.1310 N.pl3     1 MOL        -0.2849
     44 NH2        30.2530   37.4670   -3.4970 N.pl3     1 MOL        -0.2849
     45 N23        23.0490   32.0080   -4.1980 N.am      1 MOL        -0.2737
     46 C16        21.7040   31.5970   -4.5540 C.3       1 MOL         0.0645
     47 C17        21.6860   30.1050   -4.7510 C.ar      1 MOL        -0.0210
     48 C22        21.4690   29.2500   -3.6580 C.ar      1 MOL        -0.0584
     49 C21        21.5850   27.8470   -3.7950 C.ar      1 MOL        -0.0633
     50 C24        21.9130   27.2680   -5.0290 C.ar      1 MOL         0.0188
     51 C27        22.0310   25.7820   -5.1610 C.cat     1 MOL         0.2318
     52 N35        21.4410   25.0410   -4.2300 N.pl3     1 MOL        -0.2729
     53 N34        22.7070   25.2160   -6.1590 N.pl3     1 MOL        -0.2729
     54 C19        22.1200   28.1110   -6.1380 C.ar      1 MOL        -0.0633
     55 C18        22.0050   29.5350   -6.0020 C.ar      1 MOL        -0.0584
     56 H1         32.2583   27.5425   -9.4381 H         1 MOL         0.0646
     57 H2         31.5508   26.0531  -10.1508 H         1 MOL         0.0646
     58 H3         35.5049   21.2734   -6.1564 H         1 MOL         0.2664
     59 H4         33.6655   23.3982   -3.2056 H         1 MOL         0.2615
     60 H5         34.5996   24.2801   -4.4435 H         1 MOL         0.2615
     61 H6         34.3314   20.1964   -4.6073 H         1 MOL         0.2615
     62 H7         33.4993   21.0960   -3.3107 H         1 MOL         0.2615
     63 H8         32.1114   23.8287   -9.1795 H         1 MOL         0.0544
     64 H9         34.1135   27.4244   -7.9215 H         1 MOL         0.0544
     65 H10        33.7952   22.4653   -7.9566 H         1 MOL         0.0542
     66 H11        35.7986   26.0757   -6.7029 H         1 MOL         0.0542
     67 H12        36.6876   23.0053   -7.1071 H         1 MOL         0.0842
     68 H13        36.3533   24.0158   -5.6601 H         1 MOL         0.0842
     69 H14        31.6367   28.2143   -7.4457 H         1 MOL         0.1884
     70 H15        28.9564   27.2269   -6.5581 H         1 MOL         0.0800
     71 H16        29.6220   27.9035   -4.2952 H         1 MOL         0.0313
     72 H17        31.2040   28.4834   -4.9177 H         1 MOL         0.0313
     73 H18        31.5194   26.2890   -3.8967 H         1 MOL         0.0301
     74 H19        31.7036   26.1239   -5.6759 H         1 MOL         0.0301
     75 H20        29.3581   25.3673   -5.8425 H         1 MOL         0.0689
     76 H21        29.1870   25.5184   -4.0608 H         1 MOL         0.0689
     77 H22        30.6099   23.5972   -3.7750 H         1 MOL         0.2642
     78 H23        30.9149   21.1217   -6.2758 H         1 MOL         0.2615
     79 H24        31.0974   21.4942   -4.5407 H         1 MOL         0.2615
     80 H25        29.8060   24.3724   -7.1375 H         1 MOL         0.2615
     81 H26        30.2031   22.7382   -7.7328 H         1 MOL         0.2615
     82 H27        27.3592   28.6347   -6.5926 H         1 MOL         0.1884
     83 H28        28.0451   31.4051   -6.9439 H         1 MOL         0.0805
     84 H29        25.4496   31.9095   -9.6186 H         1 MOL         0.0237
     85 H30        26.8156   32.6727   -8.7365 H         1 MOL         0.0237
     86 H31        25.2784   32.3173   -7.8777 H         1 MOL         0.0237
     87 H32        27.8568   29.1131   -9.1212 H         1 MOL         0.0237
     88 H33        28.2980   30.8210   -9.4605 H         1 MOL         0.0237
     89 H34        26.9245   30.0581  -10.3313 H         1 MOL         0.0237
     90 H35        24.6336   29.8659   -7.4417 H         1 MOL         0.0237
     91 H36        25.7393   28.5633   -7.9961 H         1 MOL         0.0237
     92 H37        24.8346   29.5453   -9.1977 H         1 MOL         0.0237
     93 H38        26.7248   32.9803   -6.1457 H         1 MOL         0.1883
     94 H39        25.4799   32.4547   -3.5726 H         1 MOL         0.0800
     95 H40        24.5860   34.8005   -3.8255 H         1 MOL         0.0313
     96 H41        25.2994   34.8471   -5.4735 H         1 MOL         0.0313
     97 H42        27.5498   34.5139   -4.4467 H         1 MOL         0.0301
     98 H43        26.7825   34.6377   -2.8273 H         1 MOL         0.0301
     99 H44        25.9120   36.8734   -3.4022 H         1 MOL         0.0689
    100 H45        26.6553   36.7495   -5.0328 H         1 MOL         0.0689
    101 H46        27.9424   37.5897   -2.5910 H         1 MOL         0.2642
    102 H47        30.2352   36.0299   -5.5673 H         1 MOL         0.2615
    103 H48        28.4800   35.7109   -5.5544 H         1 MOL         0.2615
    104 H49        30.1599   38.0267   -2.6373 H         1 MOL         0.2615
    105 H50        31.1726   37.3687   -3.9504 H         1 MOL         0.2615
    106 H51        23.3540   31.8862   -3.2535 H         1 MOL         0.1878
    107 H52        21.3999   32.0961   -5.4859 H         1 MOL         0.0683
    108 H53        21.0084   31.8713   -3.7472 H         1 MOL         0.0683
    109 H54        21.2085   29.6721   -2.6941 H         1 MOL         0.0557
    110 H55        21.4179   27.2104   -2.9337 H         1 MOL         0.0599
    111 H56        21.4950   24.0136   -4.2789 H         1 MOL         0.3180
    112 H57        20.9295   25.4938   -3.4591 H         1 MOL         0.3180
    113 H58        23.1592   25.8042   -6.8735 H         1 MOL         0.3180
    114 H59        22.7777   24.1900   -6.2164 H         1 MOL         0.3180
    115 H60        22.3681   27.6810   -7.1016 H         1 MOL         0.0599
    116 H61        22.1636   30.1747   -6.8627 H         1 MOL         0.0557
@<TRIPOS>BOND
     1    1    4 1  
     2    6    1 1  
     3   13    2 1  
     4    2   14 ar 
     5    4    3 2  
     6    4   15 am 
     7   14    5 ar 
     8    8    6 ar 
     9    9    6 ar 
    10   14    7 ar 
    11   10    8 ar 
    12   12    9 ar 
    13   11   10 ar 
    14   11   12 ar 
    15   11   13 1  
    16   15   16 1  
    17   16   17 1  
    18   16   19 1  
    19   17   18 2  
    20   17   26 am 
    21   19   20 1  
    22   20   21 1  
    23   21   22 1  
    24   22   23 ar 
    25   23   24 ar 
    26   23   25 ar 
    27   26   27 1  
    28   27   28 1  
    29   27   32 1  
    30   28   29 1  
    31   28   30 1  
    32   28   31 1  
    33   32   33 2  
    34   32   34 am 
    35   34   35 1  
    36   35   36 1  
    37   35   38 1  
    38   36   37 2  
    39   36   45 am 
    40   38   39 1  
    41   39   40 1  
    42   40   41 1  
    43   41   42 ar 
    44   42   43 ar 
    45   42   44 ar 
    46   45   46 1  
    47   46   47 1  
    48   47   48 ar 
    49   47   55 ar 
    50   48   49 ar 
    51   49   50 ar 
    52   50   51 1  
    53   50   54 ar 
    54   51   52 ar 
    55   51   53 ar 
    56   54   55 ar 
    57    1   56 1  
    58    1   57 1  
    59    2   58 1  
    60    5   59 1  
    61    5   60 1  
    62    7   61 1  
    63    7   62 1  
    64    8   63 1  
    65    9   64 1  
    66   10   65 1  
    67   12   66 1  
    68   13   67 1  
    69   13   68 1  
    70   15   69 1  
    71   16   70 1  
    72   19   71 1  
    73   19   72 1  
    74   20   73 1  
    75   20   74 1  
    76   21   75 1  
    77   21   76 1  
    78   22   77 1  
    79   24   78 1  
    80   24   79 1  
    81   25   80 1  
    82   25   81 1  
    83   26   82 1  
    84   27   83 1  
    85   29   84 1  
    86   29   85 1  
    87   29   86 1  
    88   30   87 1  
    89   30   88 1  
    90   30   89 1  
    91   31   90 1  
    92   31   91 1  
    93   31   92 1  
    94   34   93 1  
    95   35   94 1  
    96   38   95 1  
    97   38   96 1  
    98   39   97 1  
    99   39   98 1  
   100   40   99 1  
   101   40  100 1  
   102   41  101 1  
   103   43  102 1  
   104   43  103 1  
   105   44  104 1  
   106   44  105 1  
   107   45  106 1  
   108   46  107 1  
   109   46  108 1  
   110   48  109 1  
   111   49  110 1  
   112   52  111 1  
   113   52  112 1  
   114   53  113 1  
   115   53  114 1  
   116   54  115 1  
   117   55  116 1  
@<TRIPOS>SUBSTRUCTURE
     1 MOL         1

