### 
### Created by X-TOOL on Sun Nov 13 14:28:23 2016
### 

@<TRIPOS>MOLECULE
4r75_ligand
   31    31     1     0     0
SMALL
GAST_HUCK


@<TRIPOS>ATOM
      1 O1        -16.1190  -10.5370   14.9510 O.3       1 S7P        -0.3896
      2 C2        -15.6440  -10.2030   13.6300 C.3       1 S7P         0.1006
      3 C3        -14.1260   -9.8820   13.6630 C.3       1 S7P         0.2205
      4 O4        -13.3870  -10.9700   14.0280 O.3       1 S7P        -0.3608
      5 O5        -13.7540   -9.4260   12.3340 O.3       1 S7P        -0.3360
      6 C6        -12.9710   -8.2110   12.4230 C.3       1 S7P         0.1187
      7 C8        -11.8900   -8.3010   11.4150 C.3       1 S7P         0.1115
      8 O9        -11.1690   -7.0980   11.3740 O.3       1 S7P        -0.3865
      9 C10       -12.4260   -8.6080    9.9170 C.3       1 S7P         0.1068
     10 O11       -11.5230   -8.0720    8.9940 O.3       1 S7P        -0.2734
     11 P12       -10.7990   -9.0100    7.9280 P.3       1 S7P         0.2008
     12 O13       -10.0070   -8.0560    7.0810 O.co2     1 S7P        -0.5537
     13 O14       -11.8550   -9.7580    7.1510 O.co2     1 S7P        -0.5537
     14 O15        -9.8820   -9.9800    8.6600 O.co2     1 S7P        -0.5537
     15 C16       -12.5390   -8.1990   13.8690 C.3       1 S7P         0.1148
     16 O17       -12.1890   -6.8250   14.3210 O.3       1 S7P        -0.3864
     17 C18       -13.7700   -8.6890   14.5200 C.3       1 S7P         0.1392
     18 O20       -13.6330   -9.0070   15.8940 O.3       1 S7P        -0.3837
     19 H1        -15.6492  -11.2976   15.2723 H         1 S7P         0.2096
     20 H2        -16.1918   -9.3239   13.2599 H         1 S7P         0.0612
     21 H3        -15.8192  -11.0547   12.9563 H         1 S7P         0.0612
     22 H4        -13.5366  -11.6751   13.4092 H         1 S7P         0.2129
     23 H5        -13.5808   -7.3205   12.2104 H         1 S7P         0.0651
     24 H6        -11.2140   -9.1153   11.7150 H         1 S7P         0.0646
     25 H7        -10.4785   -7.1659   10.7250 H         1 S7P         0.2100
     26 H8        -13.4147   -8.1467    9.7768 H         1 S7P         0.0639
     27 H9        -12.5042   -9.6951    9.7684 H         1 S7P         0.0639
     28 H10       -11.6882   -8.8733   14.0464 H         1 S7P         0.0648
     29 H11       -11.9220   -6.8510   15.2323 H         1 S7P         0.2100
     30 H12       -14.5564   -7.9242   14.4387 H         1 S7P         0.0675
     31 H13       -12.9796   -9.6890   15.9964 H         1 S7P         0.2101
@<TRIPOS>BOND
     1    1    2 1  
     2    2    3 1  
     3    3    4 1  
     4    3    5 1  
     5    3   17 1  
     6    5    6 1  
     7    6    7 1  
     8    6   15 1  
     9    7    8 1  
    10    7    9 1  
    11    9   10 1  
    12   10   11 1  
    13   11   12 ar 
    14   11   13 ar 
    15   11   14 ar 
    16   15   16 1  
    17   15   17 1  
    18   17   18 1  
    19    1   19 1  
    20    2   20 1  
    21    2   21 1  
    22    4   22 1  
    23    6   23 1  
    24    7   24 1  
    25    8   25 1  
    26    9   26 1  
    27    9   27 1  
    28   15   28 1  
    29   16   29 1  
    30   17   30 1  
    31   18   31 1  
@<TRIPOS>SUBSTRUCTURE
     1 S7P         1

