### 
### Created by X-TOOL on Fri Sep 26 17:34:57 2014
### 

@<TRIPOS>MOLECULE
4asj_ligand
   45    47     1     0     0
SMALL
GAST_HUCK


@<TRIPOS>ATOM
      1 CAW        34.5530  -23.6370   56.9570 C.ar      1 N6A        -0.0578
      2 CAX        33.8250  -24.6250   56.2810 C.ar      1 N6A        -0.0685
      3 CBA        33.6630  -24.5540   54.9000 C.ar      1 N6A        -0.0687
      4 CAZ        34.2400  -23.4940   54.2250 C.ar      1 N6A        -0.0685
      5 CAY        34.9500  -22.5200   54.9070 C.ar      1 N6A        -0.0578
      6 CAV        35.1150  -22.5760   56.2930 C.ar      1 N6A        -0.0133
      7 CAU        35.8110  -21.5990   56.9980 C.3       1 N6A         0.1020
      8 NAN        35.0940  -20.2560   56.9440 N.am      1 N6A        -0.1513
      9 CAO        34.1500  -19.8810   57.8890 C.2       1 N6A         0.1624
     10 NAP        33.7720  -20.6210   58.9100 N.2       1 N6A        -0.3924
     11 CAM        35.3850  -19.4210   55.9440 C.2       1 N6A         0.3372
     12 OAL        36.2070  -19.7450   55.0850 O.2       1 N6A        -0.3761
     13 NAD        34.7470  -18.1590   55.8610 N.am      1 N6A        -0.1727
     14 CAE        33.7750  -17.7750   56.8190 C.2       1 N6A         0.2502
     15 OAA        33.1960  -16.6850   56.7260 O.2       1 N6A        -0.3802
     16 CAF        33.4860  -18.6840   57.8350 C.3       1 N6A         0.2174
     17 NAG        32.6250  -18.3240   58.8330 N.am      1 N6A        -0.1936
     18 CAB        33.1420  -17.3340   59.7980 C.3       1 N6A         0.0244
     19 SAH        31.0260  -18.7520   58.8950 S.o2      1 N6A         0.0751
     20 OAQ        30.7660  -20.2760   58.9310 O.2       1 N6A        -0.1498
     21 OAC        30.4360  -18.1490   60.1260 O.2       1 N6A        -0.1498
     22 CAI        30.2820  -18.0680   57.5670 C.ar      1 N6A         0.1087
     23 CAJ        30.4430  -18.6510   56.3300 C.ar      1 N6A        -0.0351
     24 CAK        29.8210  -18.0870   55.2180 C.ar      1 N6A        -0.0599
     25 CAT        29.0570  -16.9360   55.3890 C.ar      1 N6A        -0.0616
     26 CAS        28.9050  -16.3430   56.6370 C.ar      1 N6A        -0.0599
     27 CAR        29.5070  -16.9130   57.7260 C.ar      1 N6A        -0.0351
     28 H1         34.6753  -23.7128   58.0314 H         1 N6A         0.0557
     29 H2         33.3865  -25.4472   56.8349 H         1 N6A         0.0599
     30 H3         33.0986  -25.3108   54.3672 H         1 N6A         0.0559
     31 H4         34.1352  -23.4246   53.1483 H         1 N6A         0.0599
     32 H5         35.3870  -21.6967   54.3536 H         1 N6A         0.0557
     33 H6         36.8135  -21.4871   56.5592 H         1 N6A         0.0774
     34 H7         35.9033  -21.9131   58.0481 H         1 N6A         0.0774
     35 H8         33.0780  -20.2748   59.5538 H         1 N6A         0.0533
     36 H9         34.9847  -17.5323   55.1188 H         1 N6A         0.2272
     37 H10        32.6691  -19.1302   57.2489 H         1 N6A         0.1053
     38 H11        34.2141  -17.1691   59.6152 H         1 N6A         0.0446
     39 H12        32.9982  -17.7100   60.8217 H         1 N6A         0.0446
     40 H13        32.5991  -16.3851   59.6762 H         1 N6A         0.0446
     41 H14        31.0496  -19.5428   56.2220 H         1 N6A         0.0637
     42 H15        29.9301  -18.5364   54.2376 H         1 N6A         0.0618
     43 H16        28.5692  -16.4918   54.5289 H         1 N6A         0.0618
     44 H17        28.3163  -15.4394   56.7465 H         1 N6A         0.0618
     45 H18        29.3841  -16.4716   58.7084 H         1 N6A         0.0637
@<TRIPOS>BOND
     1    1    2 ar 
     2    1    6 ar 
     3    2    3 ar 
     4    3    4 ar 
     5    4    5 ar 
     6    5    6 ar 
     7    6    7 1  
     8    7    8 1  
     9    8    9 1  
    10    8   11 am 
    11    9   10 2  
    12    9   16 1  
    13   11   12 2  
    14   11   13 am 
    15   13   14 am 
    16   14   15 2  
    17   14   16 1  
    18   16   17 1  
    19   17   18 1  
    20   17   19 am 
    21   19   20 2  
    22   19   21 2  
    23   19   22 1  
    24   22   23 ar 
    25   22   27 ar 
    26   23   24 ar 
    27   24   25 ar 
    28   25   26 ar 
    29   26   27 ar 
    30    1   28 1  
    31    2   29 1  
    32    3   30 1  
    33    4   31 1  
    34    5   32 1  
    35    7   33 1  
    36    7   34 1  
    37   10   35 1  
    38   13   36 1  
    39   16   37 1  
    40   18   38 1  
    41   18   39 1  
    42   18   40 1  
    43   23   41 1  
    44   24   42 1  
    45   25   43 1  
    46   26   44 1  
    47   27   45 1  
@<TRIPOS>SUBSTRUCTURE
     1 N6A         1

