### 
### Created by X-TOOL on Sat Nov 28 16:04:27 2015
### 

@<TRIPOS>MOLECULE
3wqm_ligand
   44    47     1     0     0
SMALL
GAST_HUCK


@<TRIPOS>ATOM
      1 CAY        -4.7870  -15.7090   25.8500 C.ar      1 B29         0.0114
      2 CAP        -4.4910  -15.5170   27.2290 C.ar      1 B29        -0.0644
      3 CAI        -4.8040  -16.5320   28.1710 C.ar      1 B29        -0.0726
      4 furan      -5.4120  -17.7410   27.7390 C.ar      1 B29        -0.0701
      5 CAO        -5.7070  -17.9340   26.3620 C.ar      1 B29        -0.0280
      6 CAX        -5.3940  -16.9180   25.4220 C.ar      1 B29         0.1262
      7 OAT        -5.5650  -16.8450   24.0700 O.3       1 B29        -0.2514
      8 CBA        -5.0980  -15.6380   23.6060 C.ar      1 B29         0.1352
      9 CAZ        -4.6050  -14.9110   24.7230 C.ar      1 B29         0.0129
     10 CAQ        -4.0550  -13.6150   24.5420 C.ar      1 B29        -0.0637
     11 CAK        -4.0020  -13.0460   23.2500 C.ar      1 B29        -0.0714
     12 CAN        -4.4870  -13.7610   22.1300 C.ar      1 B29        -0.0614
     13 CAW        -5.0440  -15.0690   22.2810 C.ar      1 B29         0.0156
     14 CAV        -5.5240  -15.7960   21.1380 C.ar      1 B29        -0.0273
     15 CAR        -6.5290  -16.8140   21.2520 C.ar      1 B29        -0.0551
     16 CAM        -4.9860  -15.5180   19.8440 C.ar      1 B29        -0.0632
     17 CAJ        -5.4360  -16.2290   18.7100 C.ar      1 B29        -0.0693
     18 CAL        -6.4220  -17.2300   18.8340 C.ar      1 B29        -0.0614
     19 CAU        -6.9820  -17.5330   20.1090 C.ar      1 B29        -0.0385
     20 CAS        -8.0620  -18.6300   20.2850 C.3       1 B29         0.0411
     21 CBB        -9.2110  -18.7070   19.2430 C.3       1 B29         0.2140
     22 PBC       -10.3520  -20.1370   19.6880 P.3       1 B29         0.1121
     23 OAD       -10.4530  -20.2290   21.2960 O.co2     1 B29        -0.5593
     24 OAE       -11.8210  -19.7680   19.1660 O.co2     1 B29        -0.5593
     25 OAA        -9.8890  -21.4060   19.0820 O.co2     1 B29        -0.5593
     26 PBD       -10.2840  -17.1560   19.1510 P.3       1 B29         0.1121
     27 OAF       -11.3610  -17.2980   20.3540 O.co2     1 B29        -0.5593
     28 OAG        -9.4090  -15.8480   19.4730 O.co2     1 B29        -0.5593
     29 OAB       -10.9380  -17.0890   17.8230 O.co2     1 B29        -0.5593
     30 OAC        -8.6640  -18.9570   17.9400 O.3       1 B29        -0.3579
     31 H          -4.0263  -14.5953   27.5601 H         1 B29         0.0584
     32 H          -4.5788  -16.3843   29.2210 H         1 B29         0.0532
     33 H          -5.6507  -18.5156   28.4588 H         1 B29         0.0578
     34 H          -6.1705  -18.8561   26.0303 H         1 B29         0.0561
     35 H          -3.6761  -13.0625   25.3942 H         1 B29         0.0589
     36 H          -3.5865  -12.0538   23.1159 H         1 B29         0.0536
     37 H          -4.4357  -13.3116   21.1449 H         1 B29         0.0586
     38 H          -6.9507  -17.0397   22.2248 H         1 B29         0.0546
     39 H          -4.2252  -14.7541   19.7317 H         1 B29         0.0553
     40 H          -5.0197  -16.0034   17.7349 H         1 B29         0.0597
     41 H          -6.7552  -17.7711   17.9558 H         1 B29         0.0547
     42 H          -8.5260  -18.4750   21.2702 H         1 B29         0.0483
     43 H          -7.5451  -19.6009   20.2718 H         1 B29         0.0483
     44 H          -9.3705  -19.0200   17.3080 H         1 B29         0.2134
@<TRIPOS>BOND
     1    1    2 ar 
     2    1    6 ar 
     3    1    9 1  
     4    2    3 ar 
     5    3    4 ar 
     6    4    5 ar 
     7    5    6 ar 
     8    6    7 1  
     9    7    8 1  
    10    8    9 ar 
    11    8   13 ar 
    12    9   10 ar 
    13   10   11 ar 
    14   11   12 ar 
    15   12   13 ar 
    16   13   14 1  
    17   14   15 ar 
    18   14   16 ar 
    19   15   19 ar 
    20   16   17 ar 
    21   17   18 ar 
    22   18   19 ar 
    23   19   20 1  
    24   20   21 1  
    25   21   22 1  
    26   21   26 1  
    27   21   30 1  
    28   22   23 ar 
    29   22   24 ar 
    30   22   25 ar 
    31   26   27 ar 
    32   26   28 ar 
    33   26   29 ar 
    34    2   31 1  
    35    3   32 1  
    36    4   33 1  
    37    5   34 1  
    38   10   35 1  
    39   11   36 1  
    40   12   37 1  
    41   15   38 1  
    42   16   39 1  
    43   17   40 1  
    44   18   41 1  
    45   20   42 1  
    46   20   43 1  
    47   30   44 1  
@<TRIPOS>SUBSTRUCTURE
     1 B29         1

