### 
### Created by X-TOOL on Fri Sep 26 17:34:20 2014
### 

@<TRIPOS>MOLECULE
1ew9_ligand
    9     8     1     0     0
SMALL
GAST_HUCK


@<TRIPOS>ATOM
      1 S1         73.6670   39.0110   43.5090 S.3       1 MMQ        -0.1604
      2 P          74.8050   37.0220   45.3710 P.3       1 MMQ         0.0675
      3 O1P        75.9650   37.3180   46.3390 O.co2     1 MMQ        -0.5616
      4 O2P        74.8140   35.5370   44.9980 O.co2     1 MMQ        -0.5616
      5 O3P        73.5460   37.4230   45.9820 O.co2     1 MMQ        -0.5616
      6 C1P        75.1110   37.9520   43.8360 C.3       1 MMQ         0.0623
      7 H1         73.8204   39.5338   42.6609 H         1 MMQ         0.1030
      8 H2         76.0101   38.5750   43.9520 H         1 MMQ         0.0562
      9 H3         75.2554   37.2519   42.9999 H         1 MMQ         0.0562
@<TRIPOS>BOND
     1    6    1 1  
     2    2    3 ar 
     3    2    4 ar 
     4    2    5 ar 
     5    2    6 1  
     6    1    7 1  
     7    6    8 1  
     8    6    9 1  
@<TRIPOS>SUBSTRUCTURE
     1 MMQ         1

