### 
### Created by X-TOOL on Fri Sep 26 17:34:37 2014
### 

@<TRIPOS>MOLECULE
2vhj_ligand
   39    41     1     0     0
SMALL
GAST_HUCK


@<TRIPOS>ATOM
      1 PB         82.3950   49.4680    4.9070 P.3       1 ADP         0.2069
      2 O1B        81.8260   48.0800    4.7170 O.co2     1 ADP        -0.5891
      3 O2B        83.4800   49.5640    5.9450 O.co2     1 ADP        -0.5891
      4 O3B        81.3470   50.5540    5.0370 O.co2     1 ADP        -0.5891
      5 PA         84.6730   49.1350    3.3000 P.3       1 ADP         0.3276
      6 O1A        85.1380   49.4540    1.8960 O.co2     1 ADP        -0.5556
      7 O2A        84.5900   47.6880    3.7090 O.co2     1 ADP        -0.5556
      8 O3A        83.2090   49.7790    3.5450 O.3       1 ADP        -0.1548
      9 O5'        85.6080   49.9260    4.3450 O.3       1 ADP        -0.2436
     10 C5'        86.7460   50.6650    3.9040 C.3       1 ADP         0.1132
     11 C4'        86.2890   52.0300    3.4160 C.3       1 ADP         0.1189
     12 O4'        87.0630   53.0710    4.0200 O.3       1 ADP        -0.3364
     13 C3'        86.3770   52.2070    1.9050 C.3       1 ADP         0.1149
     14 O3'        85.0590   52.3500    1.3820 O.3       1 ADP        -0.3864
     15 C2'        87.2040   53.4550    1.6550 C.3       1 ADP         0.1385
     16 O2'        86.5040   54.4360    0.8700 O.3       1 ADP        -0.3836
     17 C1'        87.5480   53.9950    3.0400 C.3       1 ADP         0.2010
     18 N9         89.0110   54.1150    3.2030 N.pl3     1 ADP        -0.1919
     19 C8         89.8700   53.0820    3.1570 C.2       1 ADP         0.1123
     20 N7         91.1410   53.5190    3.3440 N.2       1 ADP        -0.2958
     21 C5         91.1010   54.8500    3.5240 C.ar      1 ADP         0.1045
     22 C6         92.0930   55.9190    3.7740 C.ar      1 ADP         0.1298
     23 N6         93.4080   55.6140    3.8690 N.pl3     1 ADP        -0.3152
     24 N1         91.6380   57.1900    3.9000 N.ar      1 ADP        -0.2698
     25 C2         90.3230   57.4910    3.8050 C.ar      1 ADP         0.0533
     26 N3         89.3690   56.5600    3.5780 N.ar      1 ADP        -0.2714
     27 C4         89.6890   55.2460    3.4300 C.ar      1 ADP         0.1613
     28 H1         87.2404   50.1259    3.0825 H         1 ADP         0.0648
     29 H2         87.4518   50.7888    4.7386 H         1 ADP         0.0648
     30 H3         85.2373   52.1529    3.7141 H         1 ADP         0.0651
     31 H4         86.8641   51.3352    1.4438 H         1 ADP         0.0648
     32 H5         84.5522   51.5729    1.5867 H         1 ADP         0.2100
     33 H6         88.1273   53.1822    1.1230 H         1 ADP         0.0676
     34 H7         85.7119   54.6972    1.3246 H         1 ADP         0.2101
     35 H8         87.0771   54.9790    3.1811 H         1 ADP         0.0996
     36 H9         89.5865   52.0434    2.9932 H         1 ADP         0.1349
     37 H10        94.0981   56.3586    4.0430 H         1 ADP         0.1820
     38 H11        93.7188   54.6373    3.7673 H         1 ADP         0.1820
     39 H12        90.0199   58.5258    3.9159 H         1 ADP         0.0996
@<TRIPOS>BOND
     1    1    2 ar 
     2    1    3 ar 
     3    1    4 ar 
     4    8    1 1  
     5    5    6 ar 
     6    5    7 ar 
     7    5    8 1  
     8    5    9 1  
     9    9   10 1  
    10   10   11 1  
    11   11   12 1  
    12   11   13 1  
    13   12   17 1  
    14   13   14 1  
    15   13   15 1  
    16   15   16 1  
    17   15   17 1  
    18   17   18 1  
    19   18   19 1  
    20   18   27 1  
    21   19   20 2  
    22   20   21 1  
    23   21   22 ar 
    24   21   27 ar 
    25   22   23 1  
    26   22   24 ar 
    27   24   25 ar 
    28   25   26 ar 
    29   26   27 ar 
    30   10   28 1  
    31   10   29 1  
    32   11   30 1  
    33   13   31 1  
    34   14   32 1  
    35   15   33 1  
    36   16   34 1  
    37   17   35 1  
    38   19   36 1  
    39   23   37 1  
    40   23   38 1  
    41   25   39 1  
@<TRIPOS>SUBSTRUCTURE
     1 ADP         1

