### 
### Created by X-TOOL on Sun Nov 13 14:27:26 2016
### 

@<TRIPOS>MOLECULE
4zec_ligand
   77    80     1     0     0
SMALL
GAST_HUCK


@<TRIPOS>ATOM
      1 OAZ        -9.6000  -27.4570   26.6300 O.3       1 C84        -0.2248
      2 CBI       -10.6340  -27.9180   27.3200 C.3       1 C84         0.1999
      3 OAY       -11.8620  -27.2830   26.8230 O.3       1 C84        -0.3112
      4 CAR       -10.7860  -29.3630   27.0770 C.3       1 C84         0.0351
      5 CBG       -12.2270  -29.5770   26.9220 C.3       1 C84         0.1154
      6 OAG       -12.4670  -30.6430   26.1230 O.3       1 C84        -0.3861
      7 CBP       -12.7510  -28.2770   26.3700 C.3       1 C84         0.2008
      8 N9        -13.0120  -28.1370   24.9160 N.pl3     1 C84        -0.1944
      9 C8        -12.3730  -28.5410   23.7730 C.2       1 C84         0.1104
     10 N7        -13.0800  -28.0690   22.7070 N.2       1 C84        -0.2986
     11 C5        -14.1730  -27.3200   23.1990 C.ar      1 C84         0.1029
     12 C4        -14.1370  -27.3490   24.6100 C.ar      1 C84         0.1553
     13 N3        -15.1160  -26.6520   25.3340 N.ar      1 C84        -0.2784
     14 C2        -16.0930  -25.9420   24.6780 C.ar      1 C84         0.0463
     15 N1        -16.1560  -25.9080   23.2990 N.ar      1 C84        -0.2747
     16 C6        -15.2490  -26.5870   22.5350 C.ar      1 C84         0.1524
     17 N6        -15.2640  -26.5170   21.0740 N.am      1 C84        -0.1955
     18 CAA        -2.7420  -24.0410   29.3610 C.3       1 C84        -0.0601
     19 CBF        -4.1800  -23.7090   29.5780 C.3       1 C84        -0.0160
     20 CAB        -4.5160  -23.1770   30.9370 C.3       1 C84        -0.0601
     21 CBK        -4.9610  -23.1630   28.3320 C.3       1 C84         0.1005
     22 OAJ        -4.9210  -21.7740   28.1640 O.3       1 C84        -0.3866
     23 CBJ        -6.4130  -23.6530   28.2000 C.3       1 C84         0.1708
     24 OAI        -7.1130  -22.9360   27.2600 O.3       1 C84        -0.3687
     25 CBB        -6.5980  -25.1370   27.9550 C.2       1 C84         0.2249
     26 OAC        -5.7170  -25.9470   28.1600 O.2       1 C84        -0.3926
     27 NAV        -7.8910  -25.6330   27.4770 N.am      1 C84        -0.1847
     28 PBR        -8.1480  -27.2620   27.1990 P.3       1 C84         0.2355
     29 OAM        -7.9860  -27.9910   28.5820 O.co2     1 C84        -0.6036
     30 OAD        -7.0620  -27.7280   26.1690 O.co2     1 C84        -0.6036
     31 PBS       -16.6110  -26.3030   20.1330 P.3       1 C84         0.2426
     32 OAN       -17.6090  -27.4090   20.4590 O.co2     1 C84        -0.6013
     33 OAE       -17.2770  -24.9920   20.5250 O.co2     1 C84        -0.6013
     34 OBA       -16.1720  -26.3330   18.6030 O.3       1 C84        -0.2422
     35 CBO       -15.8380  -27.5490   17.9770 C.3       1 C84         0.1740
     36 CBM       -14.3620  -27.8270   17.9250 C.3       1 C84         0.1197
     37 OAL       -13.8670  -28.2940   19.2240 O.3       1 C84        -0.3860
     38 CBL       -14.0120  -28.8120   16.9000 C.3       1 C84         0.1123
     39 OAK       -12.6290  -29.1590   16.8530 O.3       1 C84        -0.3865
     40 CBN       -14.6990  -28.8130   15.5460 C.3       1 C84         0.1130
     41 CAQ       -15.0190  -30.1660   14.9950 C.3       1 C84         0.0730
     42 OAF       -14.5470  -30.4160   13.7160 O.3       1 C84        -0.3924
     43 OAX       -15.9700  -28.0140   15.5290 O.3       1 C84        -0.3403
     44 CBH       -16.6750  -27.7940   16.7260 C.3       1 C84         0.1912
     45 OAH       -17.7460  -26.9240   16.5230 O.3       1 C84        -0.3646
     46 H1        -10.4953  -27.7162   28.3924 H         1 C84         0.0975
     47 H2        -10.3999  -29.9403   27.9300 H         1 C84         0.0345
     48 H3        -10.2516  -29.6586   26.1621 H         1 C84         0.0345
     49 H4        -12.6873  -29.7699   27.9023 H         1 C84         0.0651
     50 H5        -12.0844  -30.4885   25.2673 H         1 C84         0.2100
     51 H6        -13.7242  -28.1090   26.8544 H         1 C84         0.0996
     52 H7        -11.4612  -29.1345   23.7246 H         1 C84         0.1332
     53 H8        -16.8304  -25.3967   25.2559 H         1 C84         0.0981
     54 H9        -14.3864  -26.6059   20.6029 H         1 C84         0.2264
     55 H10        -2.3054  -24.4113   30.3003 H         1 C84         0.0233
     56 H11        -2.2024  -23.1391   29.0364 H         1 C84         0.0233
     57 H12        -2.6578  -24.8174   28.5864 H         1 C84         0.0233
     58 H13        -4.6148  -24.7168   29.6501 H         1 C84         0.0323
     59 H14        -5.5941  -22.9656   30.9917 H         1 C84         0.0233
     60 H15        -3.9511  -22.2507   31.1181 H         1 C84         0.0233
     61 H16        -4.2497  -23.9239   31.6993 H         1 C84         0.0233
     62 H17        -4.4269  -23.5820   27.4665 H         1 C84         0.0648
     63 H18        -5.4173  -21.5353   27.3899 H         1 C84         0.2101
     64 H19        -6.8834  -23.4463   29.1726 H         1 C84         0.0864
     65 H20        -7.1295  -22.0196   27.5100 H         1 C84         0.2134
     66 H21        -8.6346  -24.9847   27.3137 H         1 C84         0.2110
     67 H22       -16.2035  -28.3166   18.6750 H         1 C84         0.0739
     68 H23       -13.8532  -26.8833   17.6791 H         1 C84         0.0652
     69 H24       -12.9339  -28.4621   19.1642 H         1 C84         0.2100
     70 H25       -14.4509  -29.7180   17.3434 H         1 C84         0.0647
     71 H26       -12.4875  -29.7991   16.1655 H         1 C84         0.2100
     72 H27       -13.9961  -28.3353   14.8476 H         1 C84         0.0647
     73 H28       -16.1134  -30.2757   14.9798 H         1 C84         0.0584
     74 H29       -14.5844  -30.9182   15.6697 H         1 C84         0.0584
     75 H30       -14.7974  -31.2940   13.4532 H         1 C84         0.2095
     76 H31       -17.1532  -28.7624   16.9343 H         1 C84         0.0940
     77 H32       -17.4197  -26.0909   16.2036 H         1 C84         0.2126
@<TRIPOS>BOND
     1    1    2 1  
     2   28    1 1  
     3    2    3 1  
     4    2    4 1  
     5    3    7 1  
     6    4    5 1  
     7    5    6 1  
     8    5    7 1  
     9    7    8 1  
    10    8    9 1  
    11    8   12 1  
    12    9   10 2  
    13   11   10 1  
    14   12   11 ar 
    15   11   16 ar 
    16   12   13 ar 
    17   13   14 ar 
    18   14   15 ar 
    19   16   15 ar 
    20   16   17 1  
    21   17   31 am 
    22   19   18 1  
    23   19   20 1  
    24   21   19 1  
    25   21   22 1  
    26   23   21 1  
    27   23   24 1  
    28   25   23 1  
    29   25   26 2  
    30   27   25 am 
    31   27   28 am 
    32   28   29 ar 
    33   28   30 ar 
    34   31   32 ar 
    35   31   33 ar 
    36   31   34 1  
    37   34   35 1  
    38   35   36 1  
    39   35   44 1  
    40   36   37 1  
    41   36   38 1  
    42   38   39 1  
    43   38   40 1  
    44   40   41 1  
    45   40   43 1  
    46   41   42 1  
    47   43   44 1  
    48   44   45 1  
    49    2   46 1  
    50    4   47 1  
    51    4   48 1  
    52    5   49 1  
    53    6   50 1  
    54    7   51 1  
    55    9   52 1  
    56   14   53 1  
    57   17   54 1  
    58   18   55 1  
    59   18   56 1  
    60   18   57 1  
    61   19   58 1  
    62   20   59 1  
    63   20   60 1  
    64   20   61 1  
    65   21   62 1  
    66   22   63 1  
    67   23   64 1  
    68   24   65 1  
    69   27   66 1  
    70   35   67 1  
    71   36   68 1  
    72   37   69 1  
    73   38   70 1  
    74   39   71 1  
    75   40   72 1  
    76   41   73 1  
    77   41   74 1  
    78   42   75 1  
    79   44   76 1  
    80   45   77 1  
@<TRIPOS>SUBSTRUCTURE
     1 C84         1

