### 
### Created by X-TOOL on Fri Sep 26 17:34:16 2014
### 

@<TRIPOS>MOLECULE
1yej_ligand
   48    48     1     0     0
SMALL
GAST_HUCK


@<TRIPOS>ATOM
      1 C1         11.7240   37.6520   61.5920 C.ar      1 PNF         0.1389
      2 C2         11.5950   38.9440   61.0990 C.ar      1 PNF        -0.0184
      3 C3         10.3830   39.5810   61.2410 C.ar      1 PNF        -0.0310
      4 C4          9.3230   38.9240   61.8670 C.ar      1 PNF         0.1271
      5 C5          9.4940   37.6010   62.3560 C.ar      1 PNF        -0.0310
      6 C6         10.7220   36.9360   62.2210 C.ar      1 PNF        -0.0184
      7 P1         14.2130   37.5270   62.3610 P.3       1 PNF         0.3934
      8 O1         12.9460   37.0450   61.4460 O.3       1 PNF        -0.1735
      9 O2         14.4460   38.9260   62.1110 O.co2     1 PNF        -0.2881
     10 O3         13.9650   37.0920   63.7470 O.co2     1 PNF        -0.2881
     11 C8         15.5100   36.5790   61.7560 C.3       1 PNF         0.0853
     12 C9         16.0650   37.0440   60.4760 C.3       1 PNF        -0.0145
     13 C10        17.2700   36.1540   60.2140 C.3       1 PNF         0.0388
     14 C11        17.6240   36.0770   58.7520 C.2       1 PNF         0.1760
     15 N2         17.3290   34.9030   58.0520 N.am      1 PNF        -0.2870
     16 O6         18.1670   37.0950   58.2460 O.2       1 PNF        -0.3971
     17 C12        17.5900   34.6900   56.7120 C.3       1 PNF         0.0309
     18 C13        16.5890   33.7390   56.0350 C.3       1 PNF        -0.0327
     19 C14        17.2310   32.9210   54.8670 C.3       1 PNF        -0.0497
     20 C15        17.0470   31.3850   54.9810 C.3       1 PNF        -0.0414
     21 C16        16.7600   30.6380   53.6670 C.3       1 PNF         0.0002
     22 C17        15.7740   29.4520   53.7680 C.2       1 PNF         0.0348
     23 O7         15.6460   28.8790   54.7890 O.co2     1 PNF        -0.5690
     24 O8         15.0990   29.0450   52.8370 O.co2     1 PNF        -0.5690
     25 N1          8.0130   39.6060   62.0260 N.2       1 PNF         0.0349
     26 O4          7.8500   40.7940   61.7110 O.2       1 PNF        -0.1540
     27 O5          7.0620   38.9830   62.4940 O.2       1 PNF        -0.1540
     28 H1         12.4287   39.4389   60.6141 H         1 PNF         0.0573
     29 H2         10.2524   40.5902   60.8675 H         1 PNF         0.0666
     30 H3          8.6643   37.0985   62.8400 H         1 PNF         0.0666
     31 H4         10.8753   35.9268   62.5859 H         1 PNF         0.0573
     32 H5         15.1473   35.5497   61.6186 H         1 PNF         0.0526
     33 H6         16.3176   36.5866   62.5027 H         1 PNF         0.0526
     34 H7         16.3729   38.0975   60.5495 H         1 PNF         0.0306
     35 H8         15.3228   36.9342   59.6716 H         1 PNF         0.0306
     36 H9         17.0449   35.1400   60.5762 H         1 PNF         0.0503
     37 H10        18.1326   36.5571   60.7649 H         1 PNF         0.0503
     38 H11        16.8952   34.1595   58.5610 H         1 PNF         0.1850
     39 H12        18.5977   34.2591   56.6179 H         1 PNF         0.0520
     40 H13        17.5555   35.6589   56.1924 H         1 PNF         0.0520
     41 H14        15.7557   34.3334   55.6321 H         1 PNF         0.0285
     42 H15        16.2065   33.0353   56.7890 H         1 PNF         0.0285
     43 H16        18.3093   33.1374   54.8480 H         1 PNF         0.0267
     44 H17        16.7737   33.2527   53.9232 H         1 PNF         0.0267
     45 H18        16.2061   31.1971   55.6648 H         1 PNF         0.0283
     46 H19        17.9694   30.9670   55.4105 H         1 PNF         0.0283
     47 H20        17.7154   30.2506   53.2836 H         1 PNF         0.0430
     48 H21        16.3442   31.3623   52.9511 H         1 PNF         0.0430
@<TRIPOS>BOND
     1    1    8 1  
     2    1    6 ar 
     3    1    2 ar 
     4    2    3 ar 
     5    3    4 ar 
     6    4   25 1  
     7    4    5 ar 
     8    5    6 ar 
     9   25   27 2  
    10   25   26 2  
    11    8    7 1  
    12    7    9 ar 
    13    7   10 ar 
    14    7   11 1  
    15   11   12 1  
    16   12   13 1  
    17   13   14 1  
    18   14   16 2  
    19   14   15 am 
    20   15   17 1  
    21   17   18 1  
    22   18   19 1  
    23   19   20 1  
    24   20   21 1  
    25   21   22 1  
    26   22   24 ar 
    27   22   23 ar 
    28    2   28 1  
    29    3   29 1  
    30    5   30 1  
    31    6   31 1  
    32   11   32 1  
    33   11   33 1  
    34   12   34 1  
    35   12   35 1  
    36   13   36 1  
    37   13   37 1  
    38   15   38 1  
    39   17   39 1  
    40   17   40 1  
    41   18   41 1  
    42   18   42 1  
    43   19   43 1  
    44   19   44 1  
    45   20   45 1  
    46   20   46 1  
    47   21   47 1  
    48   21   48 1  
@<TRIPOS>SUBSTRUCTURE
     1 PNF         1

