### 
### Created by X-TOOL on Fri Sep 26 17:34:12 2014
### 

@<TRIPOS>MOLECULE
1lkl_ligand
   68    68     1     0     0
SMALL
GAST_HUCK


@<TRIPOS>ATOM
      1 CA         28.9270   -4.9240   -3.5800 C.3       1 MOL         0.0258
      2 C          28.7210   -4.0850   -2.3300 C.2       1 MOL         0.1753
      3 O          29.1730   -4.4970   -1.2560 O.2       1 MOL        -0.3972
      4 N          28.0400   -2.9510   -2.4390 N.am      1 MOL        -0.2628
      5 CA         27.8080   -2.0810   -1.3080 C.3       1 MOL         0.1468
      6 C          26.3360   -1.9770   -0.9450 C.2       1 MOL         0.2074
      7 O          25.4560   -2.0900   -1.8050 O.2       1 MOL        -0.3941
      8 CB         28.3570   -0.6790   -1.5930 C.3       1 MOL         0.0400
      9 CG         29.8720   -0.6260   -1.6670 C.ar      1 MOL        -0.0004
     10 CD1        30.6320   -0.5030   -0.5070 C.ar      1 MOL        -0.0239
     11 CD2        30.5390   -0.6550   -2.8980 C.ar      1 MOL        -0.0239
     12 CE1        32.0190   -0.3960   -0.5570 C.ar      1 MOL         0.0115
     13 CE2        31.9370   -0.5530   -2.9630 C.ar      1 MOL         0.0115
     14 CZ         32.6650   -0.4180   -1.7850 C.ar      1 MOL         0.1728
     15 OH         34.0280   -0.2590   -1.8330 O.3       1 MOL        -0.2040
     16 N          26.0940   -1.8170    0.3480 N.am      1 MOL        -0.2634
     17 CA         24.7690   -1.6400    0.8820 C.3       1 MOL         0.1325
     18 C          24.5470   -0.1420    0.9410 C.2       1 MOL         0.2040
     19 O          25.5030    0.6280    0.9760 O.2       1 MOL        -0.3944
     20 CB         24.6900   -2.2320    2.2880 C.3       1 MOL        -0.0008
     21 CG         24.3020   -3.6800    2.2990 C.3       1 MOL         0.0044
     22 CD         22.8800   -3.8910    1.7910 C.2       1 MOL         0.0350
     23 OE1        21.9330   -3.3720    2.4300 O.co2     1 MOL        -0.5690
     24 OE2        22.7120   -4.5650    0.7560 O.co2     1 MOL        -0.5690
     25 N          23.2860    0.2700    0.9080 N.am      1 MOL        -0.2636
     26 CA         22.9300    1.6800    0.9760 C.3       1 MOL         0.1324
     27 C          22.3670    1.9390    2.3690 C.2       1 MOL         0.2032
     28 O          21.6290    1.1040    2.9040 O.2       1 MOL        -0.3944
     29 CB         21.8400    2.0020   -0.0500 C.3       1 MOL        -0.0008
     30 CG         22.2220    1.7210   -1.4920 C.3       1 MOL         0.0044
     31 CD         23.2090    2.7330   -2.0560 C.2       1 MOL         0.0350
     32 OE1        23.1180    3.9320   -1.6970 O.co2     1 MOL        -0.5690
     33 OE2        24.0630    2.3370   -2.8870 O.co2     1 MOL        -0.5690
     34 N          22.7010    3.0930    2.9330 N.am      1 MOL        -0.2722
     35 CA         22.2100    3.4680    4.2470 C.3       1 MOL         0.0833
     36 C          21.1600    4.5540    4.0960 C.2       1 MOL         0.0570
     37 O          20.3850    4.4870    3.1110 O.co2     1 MOL        -0.5669
     38 OXT        21.1310    5.4880    4.9270 O.co2     1 MOL        -0.5669
     39 P          35.0920   -1.4330   -1.5510 P.3       1 MOL         0.1348
     40 O1P        35.6000   -1.9870   -2.8210 O.co2     1 MOL        -0.6653
     41 O2P        34.4900   -2.4960   -0.7480 O.co2     1 MOL        -0.6653
     42 O3P        36.1150   -0.7100   -0.7650 O.co2     1 MOL        -0.6653
     43 H1         28.4668   -4.4177   -4.4413 H         1 MOL         0.0467
     44 H2         28.4590   -5.9098   -3.4412 H         1 MOL         0.0467
     45 H3         30.0042   -5.0519   -3.7624 H         1 MOL         0.0467
     46 H4         27.6754   -2.6898   -3.3328 H         1 MOL         0.1885
     47 H5         28.3452   -2.4989   -0.4438 H         1 MOL         0.0840
     48 H6         28.0238   -0.0047   -0.7903 H         1 MOL         0.0584
     49 H7         27.9491   -0.3341   -2.5546 H         1 MOL         0.0584
     50 H8         30.1332   -0.4903    0.4553 H         1 MOL         0.0703
     51 H9         29.9674   -0.7577   -3.8133 H         1 MOL         0.0703
     52 H10        32.5913   -0.2960    0.3582 H         1 MOL         0.0736
     53 H11        32.4443   -0.5791   -3.9206 H         1 MOL         0.0736
     54 H12        26.8674   -1.8193    0.9819 H         1 MOL         0.1883
     55 H13        24.0213   -2.1187    0.2325 H         1 MOL         0.0801
     56 H14        23.9434   -1.6658    2.8641 H         1 MOL         0.0330
     57 H15        25.6757   -2.1307    2.7657 H         1 MOL         0.0330
     58 H16        24.3715   -4.0591    3.3293 H         1 MOL         0.0433
     59 H17        24.9964   -4.2393    1.6548 H         1 MOL         0.0433
     60 H18        22.5566   -0.4101    0.8340 H         1 MOL         0.1883
     61 H19        23.8163    2.3054    0.7934 H         1 MOL         0.0801
     62 H20        21.5928    3.0703    0.0368 H         1 MOL         0.0330
     63 H21        20.9524    1.3993    0.1927 H         1 MOL         0.0330
     64 H22        21.3098    1.7418   -2.1063 H         1 MOL         0.0433
     65 H23        22.6771    0.7210   -1.5452 H         1 MOL         0.0433
     66 H24        23.3055    3.7195    2.4410 H         1 MOL         0.1873
     67 H25        21.7637    2.5903    4.7373 H         1 MOL         0.0689
     68 H26        23.0438    3.8447    4.8576 H         1 MOL         0.0689
@<TRIPOS>BOND
     1    2    1 1  
     2    2    3 2  
     3    5    6 1  
     4    8    5 1  
     5    5    4 1  
     6    9    8 1  
     7   11    9 ar 
     8   10    9 ar 
     9   12   10 ar 
    10   14   12 ar 
    11   15   14 1  
    12   14   13 ar 
    13   13   11 ar 
    14    6    7 2  
    15   17   18 1  
    16   17   20 1  
    17   16   17 1  
    18   20   21 1  
    19   21   22 1  
    20   22   23 ar 
    21   22   24 ar 
    22   18   19 2  
    23   26   27 1  
    24   26   29 1  
    25   25   26 1  
    26   29   30 1  
    27   30   31 1  
    28   31   32 ar 
    29   31   33 ar 
    30   27   28 2  
    31   35   36 1  
    32   34   35 1  
    33   36   38 ar 
    34   36   37 ar 
    35   39   42 ar 
    36   39   41 ar 
    37   39   40 ar 
    38    4    2 am 
    39    6   16 am 
    40   18   25 am 
    41   27   34 am 
    42   15   39 1  
    43    1   43 1  
    44    1   44 1  
    45    1   45 1  
    46    4   46 1  
    47    5   47 1  
    48    8   48 1  
    49    8   49 1  
    50   10   50 1  
    51   11   51 1  
    52   12   52 1  
    53   13   53 1  
    54   16   54 1  
    55   17   55 1  
    56   20   56 1  
    57   20   57 1  
    58   21   58 1  
    59   21   59 1  
    60   25   60 1  
    61   26   61 1  
    62   29   62 1  
    63   29   63 1  
    64   30   64 1  
    65   30   65 1  
    66   34   66 1  
    67   35   67 1  
    68   35   68 1  
@<TRIPOS>SUBSTRUCTURE
     1 MOL         1

