### 
### Created by X-TOOL on Fri Sep 26 17:34:22 2014
### 

@<TRIPOS>MOLECULE
1olu_ligand
   42    43     1     0     0
SMALL
GAST_HUCK


@<TRIPOS>ATOM
      1 N1         77.0790    0.5310   11.4280 N.ar      1 TDP        -0.2938
      2 C2         77.3800    1.7710   11.9270 C.ar      1 TDP         0.0758
      3 C2A        77.5030    1.8960   13.4600 C.3       1 TDP        -0.0029
      4 N3         77.5600    2.8440   11.1510 N.ar      1 TDP        -0.2610
      5 C4         77.4350    2.6700    9.7750 C.ar      1 TDP         0.1223
      6 N4         77.6240    3.8330    9.0130 N.pl3     1 TDP        -0.3187
      7 C5         77.1310    1.3890    9.1570 C.ar      1 TDP         0.0328
      8 C6         76.9590    0.3330   10.0860 C.ar      1 TDP         0.0074
      9 C35        77.0060    1.1980    7.6330 C.3       1 TDP         0.0562
     10 N3         75.7670    1.7700    7.1130 N.2       1 TDP        -0.2745
     11 C2         75.7300    3.0240    6.5200 C.2       1 TDP         0.1352
     12 S1         74.0750    3.4240    6.0280 S.3       1 TDP         0.1156
     13 C5         73.4920    1.8830    6.6380 C.2       1 TDP         0.1730
     14 C4         74.4460    1.0630    7.1880 C.2       1 TDP         0.1309
     15 C4A        74.2670   -0.3480    7.7960 C.3       1 TDP         0.0228
     16 C5A        72.0000    1.7180    6.4750 C.3       1 TDP         0.0829
     17 C5B        71.2530    2.7750    7.3400 C.3       1 TDP         0.1135
     18 O5G        69.8500    2.4930    7.2950 O.3       1 TDP        -0.2401
     19 P1         68.8300    3.5820    7.7370 P.3       1 TDP         0.3279
     20 O11        68.8400    4.7800    6.7130 O.3       1 TDP        -0.1548
     21 O12        69.1910    4.0700    9.1150 O.co2     1 TDP        -0.5556
     22 O13        67.4920    2.9380    7.7290 O.co2     1 TDP        -0.5556
     23 P2         68.5510    4.9380    5.1320 P.3       1 TDP         0.2069
     24 O21        67.9730    6.3530    4.9750 O.co2     1 TDP        -0.5891
     25 O22        69.9150    4.8070    4.5000 O.co2     1 TDP        -0.5891
     26 O23        67.5900    3.9370    4.6300 O.co2     1 TDP        -0.5891
     27 H1         77.3229    0.9148   13.9235 H         1 TDP         0.0449
     28 H2         76.7601    2.6180   13.8298 H         1 TDP         0.0449
     29 H3         78.5136    2.2442   13.7196 H         1 TDP         0.0449
     30 H4         77.5493    3.7939    7.9865 H         1 TDP         0.1789
     31 H5         77.8374    4.7258    9.4802 H         1 TDP         0.1789
     32 H6         76.7255   -0.6597    9.7184 H         1 TDP         0.0791
     33 H7         77.0233    0.1217    7.4067 H         1 TDP         0.0563
     34 H8         77.8585    1.6898    7.1417 H         1 TDP         0.0563
     35 H9         76.5948    3.6703    6.3773 H         1 TDP         0.1655
     36 H10        73.2092   -0.6430    7.7328 H         1 TDP         0.0599
     37 H11        74.5819   -0.3358    8.8499 H         1 TDP         0.0599
     38 H12        74.8826   -1.0687    7.2377 H         1 TDP         0.0599
     39 H13        71.7070    0.7085    6.7990 H         1 TDP         0.0773
     40 H14        71.7310    1.8562    5.4174 H         1 TDP         0.0773
     41 H15        71.4416    3.7819    6.9394 H         1 TDP         0.0687
     42 H16        71.6086    2.7214    8.3796 H         1 TDP         0.0687
@<TRIPOS>BOND
     1    1    2 ar 
     2    1    8 ar 
     3    2    3 1  
     4    2    4 ar 
     5    4    5 ar 
     6    5    6 1  
     7    5    7 ar 
     8    7    8 ar 
     9    7    9 1  
    10    9   10 1  
    11   10   11 2  
    12   10   14 1  
    13   11   12 1  
    14   12   13 1  
    15   13   14 2  
    16   13   16 1  
    17   14   15 1  
    18   16   17 1  
    19   17   18 1  
    20   18   19 1  
    21   19   20 1  
    22   19   21 ar 
    23   19   22 ar 
    24   20   23 1  
    25   23   24 ar 
    26   23   25 ar 
    27   23   26 ar 
    28    3   27 1  
    29    3   28 1  
    30    3   29 1  
    31    6   30 1  
    32    6   31 1  
    33    8   32 1  
    34    9   33 1  
    35    9   34 1  
    36   11   35 1  
    37   15   36 1  
    38   15   37 1  
    39   15   38 1  
    40   16   39 1  
    41   16   40 1  
    42   17   41 1  
    43   17   42 1  
@<TRIPOS>SUBSTRUCTURE
     1 TDP         1

