### 
### Created by X-TOOL on Fri Sep 26 17:34:50 2014
### 

@<TRIPOS>MOLECULE
3ujd_ligand
   24    23     1     0     0
SMALL
GAST_HUCK


@<TRIPOS>ATOM
      1 P1         15.4940   10.8080   20.0140 P.3       1 PC          0.2009
      2 O1         14.2540   11.6260   20.3230 O.co2     1 PC         -0.5537
      3 O3         16.1560   10.2510   21.2510 O.co2     1 PC         -0.5537
      4 O4         15.2200    9.7120   19.0000 O.co2     1 PC         -0.5537
      5 O2         16.5600   11.7930   19.3730 O.3       1 PC         -0.2708
      6 C1         16.2640   12.5890   18.2440 C.3       1 PC          0.1181
      7 C2         17.4080   13.5300   17.8420 C.3       1 PC         -0.0024
      8 N1         17.6950   14.7020   18.7120 N.4       1 PC          0.2387
      9 C3         18.8280   15.4360   18.0210 C.3       1 PC         -0.0417
     10 C4         17.9530   14.2850   20.0820 C.3       1 PC         -0.0417
     11 C5         16.5880   15.5670   18.7470 C.3       1 PC         -0.0417
     12 H1         15.3758   13.1973   18.4699 H         1 PC          0.0666
     13 H2         16.0464   11.9232   17.3958 H         1 PC          0.0666
     14 H3         17.1738   13.9179   16.8397 H         1 PC          0.0841
     15 H4         18.3260   12.9258   17.7961 H         1 PC          0.0841
     16 H5         19.1013   16.3248   18.6086 H         1 PC          0.0778
     17 H6         18.5052   15.7459   17.0161 H         1 PC          0.0778
     18 H7         19.6993   14.7698   17.9371 H         1 PC          0.0778
     19 H8         17.0685   13.7661   20.4800 H         1 PC          0.0778
     20 H9         18.1684   15.1691   20.7000 H         1 PC          0.0778
     21 H10        18.8170   13.6045   20.1016 H         1 PC          0.0778
     22 H11        16.3569   15.9081   17.7271 H         1 PC          0.0778
     23 H12        16.8213   16.4357   19.3801 H         1 PC          0.0778
     24 H13        15.7193   15.0342   19.1611 H         1 PC          0.0778
@<TRIPOS>BOND
     1    1    2 ar 
     2    1    3 ar 
     3    1    4 ar 
     4    1    5 1  
     5    5    6 1  
     6    6    7 1  
     7    7    8 1  
     8    8    9 1  
     9    8   10 1  
    10    8   11 1  
    11    6   12 1  
    12    6   13 1  
    13    7   14 1  
    14    7   15 1  
    15    9   16 1  
    16    9   17 1  
    17    9   18 1  
    18   10   19 1  
    19   10   20 1  
    20   10   21 1  
    21   11   22 1  
    22   11   23 1  
    23   11   24 1  
@<TRIPOS>SUBSTRUCTURE
     1 PC          1

