### 
### Created by X-TOOL on Fri Sep 26 17:34:59 2014
### 

@<TRIPOS>MOLECULE
4l4z_ligand
   23    22     1     0     0
SMALL
GAST_HUCK


@<TRIPOS>ATOM
      1 O3P       -38.0160   24.1180   -4.5320 O.co2     1 D5X        -0.5537
      2 P         -38.4060   22.5440   -4.4800 P.3       1 D5X         0.2008
      3 O2P       -39.8730   22.4050   -4.9130 O.co2     1 D5X        -0.5537
      4 O1P       -38.1770   21.9480   -3.0900 O.co2     1 D5X        -0.5537
      5 O5        -37.6320   21.6220   -5.3790 O.3       1 D5X        -0.2735
      6 C5        -36.2310   21.7950   -5.5210 C.3       1 D5X         0.1083
      7 C4        -35.5330   20.5700   -4.9730 C.3       1 D5X         0.1425
      8 O4        -35.7450   20.7050   -3.5760 O.3       1 D5X        -0.3851
      9 C3        -34.0660   20.6450   -5.4240 C.3       1 D5X         0.2606
     10 O3        -33.7300   20.2080   -6.7230 O.3       1 D5X        -0.3629
     11 O3'       -33.1240   21.3790   -4.7420 O.3       1 D5X        -0.3629
     12 C2        -33.5470   19.3190   -4.7300 C.2       1 D5X         0.1852
     13 O2        -33.6160   18.1830   -5.2400 O.2       1 D5X        -0.3272
     14 C1        -32.8170   19.4580   -3.3600 C.3       1 D5X         0.0161
     15 H1        -35.9094   22.6856   -4.9613 H         1 D5X         0.0638
     16 H2        -35.9793   21.9196   -6.5845 H         1 D5X         0.0638
     17 H3        -35.9830   19.6363   -5.3415 H         1 D5X         0.0658
     18 H4        -36.6781   20.7119   -3.3976 H         1 D5X         0.2099
     19 H5        -32.9594   19.6540   -6.6801 H         1 D5X         0.2100
     20 H6        -33.4648   21.6128   -3.8866 H         1 D5X         0.2100
     21 H7        -32.5161   18.4623   -3.0022 H         1 D5X         0.0453
     22 H8        -33.4954   19.9209   -2.6283 H         1 D5X         0.0453
     23 H9        -31.9242   20.0888   -3.4825 H         1 D5X         0.0453
@<TRIPOS>BOND
     1    1    2 ar 
     2    2    3 ar 
     3    2    4 ar 
     4    2    5 1  
     5    5    6 1  
     6    6    7 1  
     7    7    8 1  
     8    7    9 1  
     9    9   10 1  
    10    9   11 1  
    11    9   12 1  
    12   12   13 2  
    13   12   14 1  
    14    6   15 1  
    15    6   16 1  
    16    7   17 1  
    17    8   18 1  
    18   10   19 1  
    19   11   20 1  
    20   14   21 1  
    21   14   22 1  
    22   14   23 1  
@<TRIPOS>SUBSTRUCTURE
     1 D5X         1

