### 
### Created by X-TOOL on Fri Sep 26 17:34:35 2014
### 

@<TRIPOS>MOLECULE
2qfu_ligand
   16    15     1     0     0
SMALL
GAST_HUCK


@<TRIPOS>ATOM
      1 P1         60.2450    8.6740   26.9030 P.3       1 GPJ         0.1070
      2 O1         60.3050   10.1080   27.2450 O.co2     1 GPJ        -0.5587
      3 O2         59.1710    8.3000   25.9520 O.co2     1 GPJ        -0.5587
      4 O3         61.6010    8.1780   26.4350 O.co2     1 GPJ        -0.5587
      5 O4         60.9860    9.8310   31.6480 O.co2     1 GPJ        -0.5645
      6 O5         60.2890    8.2830   33.0650 O.co2     1 GPJ        -0.5645
      7 C1         59.8100    7.7950   28.3200 C.3       1 GPJ         0.0369
      8 C2         59.9430    7.8690   30.8180 C.3       1 GPJ         0.0207
      9 C3         60.4420    8.7150   31.9290 C.2       1 GPJ         0.0813
     10 N1         60.2340    8.4810   29.5200 N.4       1 GPJ         0.2507
     11 H1         60.2874    6.8046   28.2869 H         1 GPJ         0.1013
     12 H2         58.7169    7.6746   28.3445 H         1 GPJ         0.1013
     13 H3         58.8549    7.7450   30.9212 H         1 GPJ         0.0989
     14 H4         60.4308    6.8844   30.8687 H         1 GPJ         0.0989
     15 H5         59.7949    9.3883   29.5144 H         1 GPJ         0.2042
     16 H6         61.2342    8.5914   29.4613 H         1 GPJ         0.2042
@<TRIPOS>BOND
     1    1    2 ar 
     2    1    3 ar 
     3    1    4 ar 
     4    7    1 1  
     5    9    5 ar 
     6    9    6 ar 
     7   10    7 1  
     8    8    9 1  
     9    8   10 1  
    10    7   11 1  
    11    7   12 1  
    12    8   13 1  
    13    8   14 1  
    14   10   15 1  
    15   10   16 1  
@<TRIPOS>SUBSTRUCTURE
     1 GPJ         1

