### 
### Created by X-TOOL on Fri Sep 26 17:35:00 2014
### 

@<TRIPOS>MOLECULE
4bi6_ligand
   11    10     1     0     0
SMALL
GAST_HUCK


@<TRIPOS>ATOM
      1 P          -1.6930  -19.8400  -35.5630 P.3       1 PGA         0.2032
      2 O1P        -2.2440  -18.3250  -35.5200 O.3       1 PGA        -0.2622
      3 O2P        -2.5460  -20.6000  -36.5420 O.co2     1 PGA        -0.5536
      4 O3P        -0.2550  -19.7700  -36.0210 O.co2     1 PGA        -0.5536
      5 O4P        -1.7650  -20.4060  -34.1650 O.co2     1 PGA        -0.5536
      6 C2         -3.5220  -18.0180  -34.9980 C.3       1 PGA         0.1305
      7 C1         -3.9070  -16.6280  -35.4500 C.2       1 PGA         0.0653
      8 O1         -5.0940  -16.3220  -35.6500 O.co2     1 PGA        -0.5663
      9 O2         -3.0320  -15.7580  -35.6300 O.co2     1 PGA        -0.5663
     10 H1         -3.4920  -18.0551  -33.8990 H         1 PGA         0.0783
     11 H2         -4.2585  -18.7456  -35.3696 H         1 PGA         0.0783
@<TRIPOS>BOND
     1    1    2 1  
     2    1    3 ar 
     3    1    4 ar 
     4    1    5 ar 
     5    2    6 1  
     6    6    7 1  
     7    7    8 ar 
     8    7    9 ar 
     9    6   10 1  
    10    6   11 1  
@<TRIPOS>SUBSTRUCTURE
     1 PGA         1

