REMARK  1 active torsions:
REMARK  status: ('A' for Active; 'I' for Inactive)
REMARK    1  A    between atoms: C1_1  and  P1_7 
ROOT
ATOM      1  O1  PPF d           0.828  32.250  19.823  0.00  0.00    -0.632 OA
ATOM      2  O2  PPF d          -0.968  30.541  20.334  0.00  0.00    -0.632 OA
ATOM      3  O3  PPF d           0.615  31.308  22.143  0.00  0.00    -0.632 OA
ATOM      4  P1  PPF d          -0.098  31.666  20.862  0.00  0.00     0.364 P 
ENDROOT
BRANCH   4   5
ATOM      5  C1  PPF d          -1.155  32.956  21.301  0.00  0.00     0.307 C 
ATOM      6  O4  PPF d          -0.801  34.126  21.038  0.00  0.00    -0.637 OA
ATOM      7  O5  PPF d          -2.242  32.739  21.884  0.00  0.00    -0.637 OA
ENDBRANCH   4   5
TORSDOF 1
