### 
### Created by X-TOOL on Fri Sep 26 17:34:51 2014
### 

@<TRIPOS>MOLECULE
3t01_ligand
    7     6     1     0     0
SMALL
GAST_HUCK


@<TRIPOS>ATOM
      1 C1         -1.1550   32.9560   21.3010 C.2       1 PPF         0.1699
      2 O1          0.8280   32.2500   19.8230 O.co2     1 PPF        -0.5941
      3 O2         -0.9680   30.5410   20.3340 O.co2     1 PPF        -0.5941
      4 O3          0.6150   31.3080   22.1430 O.co2     1 PPF        -0.5941
      5 O4         -0.8010   34.1260   21.0380 O.co2     1 PPF        -0.4901
      6 O5         -2.2420   32.7390   21.8840 O.co2     1 PPF        -0.4901
      7 P1         -0.0980   31.6660   20.8620 P.3       1 PPF         0.0927
@<TRIPOS>BOND
     1    1    5 ar 
     2    1    6 ar 
     3    1    7 1  
     4    7    2 ar 
     5    7    3 ar 
     6    7    4 ar 
@<TRIPOS>SUBSTRUCTURE
     1 PPF         1

