### 
### Created by X-TOOL on Fri Sep 26 17:34:59 2014
### 

@<TRIPOS>MOLECULE
4k5p_ligand
   27    27     1     0     0
SMALL
GAST_HUCK


@<TRIPOS>ATOM
      1 O1         12.5880   12.7180   10.1510 O.co2     1 1OS        -0.5571
      2 P          13.0330   11.8140   11.4100 P.3       1 1OS         0.1231
      3 O2         12.2240   10.4850   10.7180 O.co2     1 1OS        -0.5571
      4 O3         14.6280   12.0300   11.3710 O.co2     1 1OS        -0.5571
      5 C6         12.1020   12.8080   12.5390 C.3       1 1OS         0.0775
      6 N3         10.7180   12.3400   12.3130 N.4       1 1OS         0.2451
      7 C5         12.4180   12.5650   13.9580 C.ar      1 1OS         0.0212
      8 C7         13.1930   13.4020   14.7390 C.ar      1 1OS        -0.0535
      9 C8         13.3070   13.0360   16.0920 C.ar      1 1OS        -0.0631
     10 C2         12.6540   11.9040   16.6390 C.ar      1 1OS         0.0188
     11 C1         12.7640   11.4140   18.0860 C.cat     1 1OS         0.2318
     12 N1         11.7630   11.2560   18.8600 N.pl3     1 1OS        -0.2729
     13 N2         13.9690   11.0500   18.5490 N.pl3     1 1OS        -0.2729
     14 C3         11.8770   11.1160   15.8320 C.ar      1 1OS        -0.0631
     15 C4         11.7660   11.4530   14.4930 C.ar      1 1OS        -0.0535
     16 H1         12.2223   13.8766   12.3076 H         1 1OS         0.1217
     17 H2         10.0891   12.8477   12.9153 H         1 1OS         0.2025
     18 H3         10.6585   11.3550   12.5188 H         1 1OS         0.2025
     19 H4         10.4627   12.4983   11.3508 H         1 1OS         0.2025
     20 H5         13.6805   14.2820   14.3352 H         1 1OS         0.0559
     21 H6         13.9209   13.6463   16.7445 H         1 1OS         0.0599
     22 H7         11.9051   10.9227   19.8242 H         1 1OS         0.3180
     23 H8         10.8124   11.4616   18.5210 H         1 1OS         0.3180
     24 H9         14.8037   11.1610   17.9558 H         1 1OS         0.3180
     25 H10        14.0597   10.6595   19.4978 H         1 1OS         0.3180
     26 H11        11.3616   10.2500   16.2313 H         1 1OS         0.0599
     27 H12        11.1561   10.8362   13.8429 H         1 1OS         0.0559
@<TRIPOS>BOND
     1    1    2 ar 
     2    2    3 ar 
     3    2    4 ar 
     4    2    5 1  
     5    5    6 1  
     6    5    7 1  
     7    7    8 ar 
     8    7   15 ar 
     9    8    9 ar 
    10    9   10 ar 
    11   10   11 1  
    12   10   14 ar 
    13   11   12 ar 
    14   11   13 ar 
    15   14   15 ar 
    16    5   16 1  
    17    6   17 1  
    18    6   18 1  
    19    6   19 1  
    20    8   20 1  
    21    9   21 1  
    22   12   22 1  
    23   12   23 1  
    24   13   24 1  
    25   13   25 1  
    26   14   26 1  
    27   15   27 1  
@<TRIPOS>SUBSTRUCTURE
     1 1OS         1

