### 
### Created by X-TOOL on Fri Sep 26 17:34:18 2014
### 

@<TRIPOS>MOLECULE
1fzj_ligand
  135   136     1     0     0
SMALL
GAST_HUCK


@<TRIPOS>ATOM
      1 N          49.2160   56.7600    4.6750 N.4       1 MOL         0.2379
      2 CA         47.9330   57.4080    4.2530 C.3       1 MOL         0.0651
      3 C          47.6710   57.1250    2.7910 C.2       1 MOL         0.2265
      4 O          48.5920   57.0920    1.9780 O.2       1 MOL        -0.3907
      5 CB         47.9960   58.9360    4.4610 C.3       1 MOL         0.0110
      6 CG         48.2580   59.3730    5.9010 C.3       1 MOL        -0.0125
      7 CD         47.9460   60.8660    6.0850 C.3       1 MOL         0.0629
      8 NE         46.5090   61.1130    5.9680 N.pl3     1 MOL        -0.2723
      9 CZ         45.9430   62.3170    5.9140 C.cat     1 MOL         0.2882
     10 NH1        46.6920   63.4130    5.9680 N.pl3     1 MOL        -0.2849
     11 NH2        44.6240   62.4200    5.7890 N.pl3     1 MOL        -0.2849
     12 N          46.4030   56.9490    2.4590 N.am      1 MOL        -0.2637
     13 CA         46.0280   56.6550    1.0930 C.3       1 MOL         0.1202
     14 C          45.8950   57.8530    0.1790 C.2       1 MOL         0.2009
     15 O          45.9150   59.0130    0.6140 O.2       1 MOL        -0.3947
     16 N          45.7650   57.5500   -1.1010 N.am      1 MOL        -0.2624
     17 CA         45.6370   58.5540   -2.1360 C.3       1 MOL         0.1390
     18 C          44.1740   58.9050   -2.3360 C.2       1 MOL         0.2057
     19 O          43.2970   58.1450   -1.9430 O.2       1 MOL        -0.3942
     20 CB         46.2230   57.9890   -3.4250 C.3       1 MOL         0.0163
     21 CG         46.1860   58.9120   -4.6140 C.ar      1 MOL        -0.0493
     22 CD1        46.8760   60.1260   -4.6030 C.ar      1 MOL        -0.0685
     23 CD2        45.5200   58.5410   -5.7780 C.ar      1 MOL        -0.0685
     24 CE1        46.9150   60.9390   -5.7280 C.ar      1 MOL        -0.0398
     25 CE2        45.5490   59.3500   -6.9140 C.ar      1 MOL        -0.0398
     26 CZ         46.2550   60.5490   -6.8800 C.ar      1 MOL         0.0805
     27 OH         46.3170   61.3300   -8.0170 O.3       1 MOL        -0.3376
     28 N          43.9110   60.0800   -2.9070 N.am      1 MOL        -0.2633
     29 CA         42.5430   60.4940   -3.2150 C.3       1 MOL         0.1333
     30 C          42.4010   60.1090   -4.6920 C.2       1 MOL         0.2043
     31 O          42.9400   60.7740   -5.5850 O.2       1 MOL        -0.3944
     32 CB         42.3450   62.0230   -3.0410 C.3       1 MOL        -0.0063
     33 CG1        40.9530   62.4230   -3.5370 C.3       1 MOL        -0.0584
     34 CG2        42.5130   62.4060   -1.5690 C.3       1 MOL        -0.0584
     35 N          41.6920   59.0130   -4.9500 N.am      1 MOL        -0.2621
     36 CA         41.5540   58.5130   -6.3100 C.3       1 MOL         0.1390
     37 C          40.8050   59.4060   -7.2880 C.2       1 MOL         0.2057
     38 O          39.8140   60.0450   -6.9380 O.2       1 MOL        -0.3942
     39 CB         40.9250   57.1050   -6.2890 C.3       1 MOL         0.0163
     40 CG         41.6890   56.1590   -5.3810 C.ar      1 MOL        -0.0493
     41 CD1        41.2710   55.9290   -4.0770 C.ar      1 MOL        -0.0685
     42 CD2        42.8750   55.5610   -5.8070 C.ar      1 MOL        -0.0685
     43 CE1        42.0200   55.1250   -3.2090 C.ar      1 MOL        -0.0398
     44 CE2        43.6320   54.7560   -4.9470 C.ar      1 MOL        -0.0398
     45 CZ         43.2000   54.5450   -3.6560 C.ar      1 MOL         0.0805
     46 OH         43.9390   53.7620   -2.7920 O.3       1 MOL        -0.3376
     47 N          41.2920   59.4040   -8.5220 N.am      1 MOL        -0.2634
     48 CA         40.7270   60.1850   -9.6170 C.3       1 MOL         0.1330
     49 C          39.6660   59.3900  -10.3760 C.2       1 MOL         0.2038
     50 O          39.8220   58.1790  -10.5920 O.2       1 MOL        -0.3944
     51 CB         41.8500   60.5910  -10.5710 C.3       1 MOL         0.0045
     52 CG         42.9270   61.4120   -9.8910 C.3       1 MOL         0.0412
     53 CD         42.3770   62.7110   -9.3350 C.2       1 MOL         0.1737
     54 OE1        41.8310   63.5300  -10.0790 O.2       1 MOL        -0.3973
     55 NE2        42.5080   62.9050   -8.0230 N.am      1 MOL        -0.3009
     56 N          38.6040   60.0840  -10.7810 N.am      1 MOL        -0.2664
     57 CA         37.5130   59.4720  -11.5190 C.3       1 MOL         0.1201
     58 C          37.9160   58.8360  -12.8380 C.2       1 MOL         0.2002
     59 O          38.8180   59.3220  -13.5200 O.2       1 MOL        -0.3947
     60 N          37.2340   57.7490  -13.2020 N.am      1 MOL        -0.2697
     61 CA         37.5200   57.0260  -14.4450 C.3       1 MOL         0.0946
     62 C          36.7880   57.5990  -15.6640 C.2       1 MOL         0.0601
     63 O          35.7830   58.3160  -15.4700 O.co2     1 MOL        -0.5666
     64 CB         37.1300   55.5430  -14.2820 C.3       1 MOL        -0.0156
     65 CG         37.8010   54.7720  -13.1380 C.3       1 MOL        -0.0431
     66 CD1        37.2700   53.3210  -13.1230 C.3       1 MOL        -0.0625
     67 CD2        39.3090   54.7770  -13.3260 C.3       1 MOL        -0.0625
     68 OXT        37.2020   57.2920  -16.8070 O.co2     1 MOL        -0.5666
     69 H1         49.3847   56.9523    5.6500 H         1 MOL         0.2015
     70 H2         49.9755   57.1278    4.1237 H         1 MOL         0.2015
     71 H3         49.1511   55.7638    4.5354 H         1 MOL         0.2015
     72 H4         47.1105   56.9960    4.8562 H         1 MOL         0.1098
     73 H5         47.0348   59.3653    4.1420 H         1 MOL         0.0347
     74 H6         48.8034   59.3350    3.8294 H         1 MOL         0.0347
     75 H7         49.3153   59.1931    6.1455 H         1 MOL         0.0302
     76 H8         47.6200   58.7855    6.5776 H         1 MOL         0.0302
     77 H9         48.4754   61.4432    5.3127 H         1 MOL         0.0689
     78 H10        48.2873   61.1861    7.0805 H         1 MOL         0.0689
     79 H11        45.8875   60.2928    5.9240 H         1 MOL         0.2642
     80 H12        46.2492   64.3420    5.9258 H         1 MOL         0.2615
     81 H13        47.7155   63.3337    6.0520 H         1 MOL         0.2615
     82 H14        44.0428   61.5707    5.7471 H         1 MOL         0.2615
     83 H15        44.1829   63.3491    5.7340 H         1 MOL         0.2615
     84 H16        45.6944   57.0200    3.1611 H         1 MOL         0.1882
     85 H17        46.7930   55.9885    0.6681 H         1 MOL         0.0763
     86 H18        45.0588   56.1352    1.1127 H         1 MOL         0.0763
     87 H19        45.7546   56.5858   -1.3658 H         1 MOL         0.1885
     88 H20        46.1909   59.4585   -1.8444 H         1 MOL         0.0821
     89 H21        45.6592   57.0806   -3.6838 H         1 MOL         0.0453
     90 H22        47.2737   57.7262   -3.2328 H         1 MOL         0.0453
     91 H23        47.3897   60.4389   -3.7012 H         1 MOL         0.0530
     92 H24        44.9694   57.6076   -5.8024 H         1 MOL         0.0530
     93 H25        47.4603   61.8755   -5.7039 H         1 MOL         0.0525
     94 H26        45.0267   59.0478   -7.8145 H         1 MOL         0.0525
     95 H27        45.8126   60.9196   -8.7096 H         1 MOL         0.2458
     96 H28        44.6682   60.6939   -3.1304 H         1 MOL         0.1883
     97 H29        41.8173   59.9553   -2.5880 H         1 MOL         0.0802
     98 H30        43.1029   62.5531   -3.6364 H         1 MOL         0.0343
     99 H31        40.8168   63.5073   -3.4119 H         1 MOL         0.0234
    100 H32        40.1885   61.8879   -2.9547 H         1 MOL         0.0234
    101 H33        40.8536   62.1613   -4.6008 H         1 MOL         0.0234
    102 H34        43.5164   62.1132   -1.2262 H         1 MOL         0.0234
    103 H35        41.7535   61.8868   -0.9660 H         1 MOL         0.0234
    104 H36        42.3900   63.4933   -1.4567 H         1 MOL         0.0234
    105 H37        41.2474   58.5256   -4.1985 H         1 MOL         0.1885
    106 H38        42.5753   58.4133   -6.7061 H         1 MOL         0.0821
    107 H39        40.9290   56.6981   -7.3110 H         1 MOL         0.0453
    108 H40        39.8884   57.1836   -5.9296 H         1 MOL         0.0453
    109 H41        40.3498   56.3792   -3.7252 H         1 MOL         0.0530
    110 H42        43.2171   55.7225   -6.8229 H         1 MOL         0.0530
    111 H43        41.6805   54.9562   -2.1935 H         1 MOL         0.0525
    112 H44        44.5525   54.3015   -5.2950 H         1 MOL         0.0525
    113 H45        44.7117   53.4395   -3.2409 H         1 MOL         0.2458
    114 H46        42.0918   58.8348   -8.7124 H         1 MOL         0.1883
    115 H47        40.2600   61.0909   -9.2032 H         1 MOL         0.0801
    116 H48        41.4185   61.1857  -11.3896 H         1 MOL         0.0337
    117 H49        42.3091   59.6799  -10.9821 H         1 MOL         0.0337
    118 H50        43.7144   61.6432  -10.6235 H         1 MOL         0.0504
    119 H51        43.3551   60.8243   -9.0656 H         1 MOL         0.0504
    120 H52        42.1625   63.7451   -7.6048 H         1 MOL         0.1814
    121 H53        42.9518   62.2105   -7.4567 H         1 MOL         0.1814
    122 H54        38.5561   61.0602  -10.5697 H         1 MOL         0.1881
    123 H55        37.0659   58.6920  -10.8852 H         1 MOL         0.0763
    124 H56        36.7630   60.2489  -11.7284 H         1 MOL         0.0763
    125 H57        36.5027   57.4159  -12.6068 H         1 MOL         0.1875
    126 H58        38.6017   57.0908  -14.6339 H         1 MOL         0.0726
    127 H59        37.3799   55.0282  -15.2214 H         1 MOL         0.0308
    128 H60        36.0430   55.5010  -14.1187 H         1 MOL         0.0308
    129 H61        37.5565   55.2566  -12.1812 H         1 MOL         0.0297
    130 H62        37.7485   52.7639  -12.3040 H         1 MOL         0.0232
    131 H63        37.5031   52.8353  -14.0820 H         1 MOL         0.0232
    132 H64        36.1804   53.3308  -12.9722 H         1 MOL         0.0232
    133 H65        39.6739   55.8147  -13.3349 H         1 MOL         0.0232
    134 H66        39.5612   54.2915  -14.2803 H         1 MOL         0.0232
    135 H67        39.7835   54.2286  -12.4989 H         1 MOL         0.0232
@<TRIPOS>BOND
     1    3    2 1  
     2    2    5 1  
     3    2    1 1  
     4    5    6 1  
     5    6    7 1  
     6    7    8 1  
     7    8    9 ar 
     8    9   10 ar 
     9    9   11 ar 
    10    3    4 2  
    11   14   13 1  
    12   13   12 1  
    13   14   15 2  
    14   18   17 1  
    15   17   20 1  
    16   17   16 1  
    17   20   21 1  
    18   21   23 ar 
    19   21   22 ar 
    20   22   24 ar 
    21   24   26 ar 
    22   26   27 1  
    23   25   26 ar 
    24   23   25 ar 
    25   18   19 2  
    26   30   29 1  
    27   29   32 1  
    28   29   28 1  
    29   32   33 1  
    30   32   34 1  
    31   30   31 2  
    32   37   36 1  
    33   36   39 1  
    34   36   35 1  
    35   39   40 1  
    36   40   42 ar 
    37   40   41 ar 
    38   41   43 ar 
    39   43   45 ar 
    40   45   46 1  
    41   44   45 ar 
    42   42   44 ar 
    43   37   38 2  
    44   49   48 1  
    45   48   51 1  
    46   48   47 1  
    47   51   52 1  
    48   52   53 1  
    49   53   54 2  
    50   53   55 am 
    51   49   50 2  
    52   58   57 1  
    53   57   56 1  
    54   58   59 2  
    55   61   62 1  
    56   61   64 1  
    57   60   61 1  
    58   64   65 1  
    59   65   67 1  
    60   65   66 1  
    61   62   68 ar 
    62   62   63 ar 
    63   12    3 am 
    64   16   14 am 
    65   28   18 am 
    66   35   30 am 
    67   47   37 am 
    68   56   49 am 
    69   58   60 am 
    70    1   69 1  
    71    1   70 1  
    72    1   71 1  
    73    2   72 1  
    74    5   73 1  
    75    5   74 1  
    76    6   75 1  
    77    6   76 1  
    78    7   77 1  
    79    7   78 1  
    80    8   79 1  
    81   10   80 1  
    82   10   81 1  
    83   11   82 1  
    84   11   83 1  
    85   12   84 1  
    86   13   85 1  
    87   13   86 1  
    88   16   87 1  
    89   17   88 1  
    90   20   89 1  
    91   20   90 1  
    92   22   91 1  
    93   23   92 1  
    94   24   93 1  
    95   25   94 1  
    96   27   95 1  
    97   28   96 1  
    98   29   97 1  
    99   32   98 1  
   100   33   99 1  
   101   33  100 1  
   102   33  101 1  
   103   34  102 1  
   104   34  103 1  
   105   34  104 1  
   106   35  105 1  
   107   36  106 1  
   108   39  107 1  
   109   39  108 1  
   110   41  109 1  
   111   42  110 1  
   112   43  111 1  
   113   44  112 1  
   114   46  113 1  
   115   47  114 1  
   116   48  115 1  
   117   51  116 1  
   118   51  117 1  
   119   52  118 1  
   120   52  119 1  
   121   55  120 1  
   122   55  121 1  
   123   56  122 1  
   124   57  123 1  
   125   57  124 1  
   126   60  125 1  
   127   61  126 1  
   128   64  127 1  
   129   64  128 1  
   130   65  129 1  
   131   66  130 1  
   132   66  131 1  
   133   66  132 1  
   134   67  133 1  
   135   67  134 1  
   136   67  135 1  
@<TRIPOS>SUBSTRUCTURE
     1 MOL         1

