### 
### Created by X-TOOL on Fri Sep 26 17:34:59 2014
### 

@<TRIPOS>MOLECULE
4l51_ligand
   23    23     1     0     0
SMALL
GAST_HUCK


@<TRIPOS>ATOM
      1 C1'       -34.6040  -20.2880   -5.8800 C.3       1 HSX         0.1854
      2 O1'       -35.0660  -21.0570   -4.7030 O.3       1 HSX        -0.3404
      3 C2'       -34.2930  -18.9630   -5.3370 C.3       1 HSX         0.1339
      4 O2'       -33.2300  -18.7840   -4.3670 O.3       1 HSX        -0.3841
      5 C3'       -35.4660  -18.7250   -4.5770 C.3       1 HSX         0.1144
      6 O3'       -35.0110  -17.7320   -3.7380 O.3       1 HSX        -0.3864
      7 C4'       -35.8100  -20.1540   -3.9840 C.3       1 HSX         0.1177
      8 C5'       -37.2100  -20.6000   -4.4860 C.3       1 HSX         0.1071
      9 O5'       -37.6410  -21.6640   -3.6900 O.3       1 HSX        -0.2734
     10 P'        -39.1410  -21.9720   -3.3940 P.3       1 HSX         0.2008
     11 O1X       -40.0420  -20.6940   -3.5960 O.co2     1 HSX        -0.5537
     12 O2X       -39.2240  -22.3810   -1.8710 O.co2     1 HSX        -0.5537
     13 O3X       -39.5510  -23.1330   -4.2250 O.co2     1 HSX        -0.5537
     14 O1        -33.3660  -20.7650   -6.5860 O.3       1 HSX        -0.3649
     15 H1        -35.4221  -20.2348   -6.6134 H         1 HSX         0.0935
     16 H2        -34.1521  -18.2488   -6.1616 H         1 HSX         0.0671
     17 H3        -33.1715  -17.8663   -4.1287 H         1 HSX         0.2101
     18 H4        -36.3140  -18.3589   -5.1743 H         1 HSX         0.0648
     19 H5        -34.2802  -18.0604   -3.2276 H         1 HSX         0.2100
     20 H6        -35.6802  -20.2038   -2.8928 H         1 HSX         0.0650
     21 H7        -37.1437  -20.9232   -5.5353 H         1 HSX         0.0639
     22 H8        -37.9189  -19.7629   -4.4042 H         1 HSX         0.0639
     23 H9        -33.1785  -20.1892   -7.3180 H         1 HSX         0.2126
@<TRIPOS>BOND
     1    1    2 1  
     2    1    3 1  
     3    1   14 1  
     4    2    7 1  
     5    3    4 1  
     6    3    5 1  
     7    5    6 1  
     8    5    7 1  
     9    7    8 1  
    10    8    9 1  
    11    9   10 1  
    12   10   11 ar 
    13   10   12 ar 
    14   10   13 ar 
    15    1   15 1  
    16    3   16 1  
    17    4   17 1  
    18    5   18 1  
    19    6   19 1  
    20    7   20 1  
    21    8   21 1  
    22    8   22 1  
    23   14   23 1  
@<TRIPOS>SUBSTRUCTURE
     1 HSX         1

