### 
### Created by X-TOOL on Fri Sep 26 17:34:52 2014
### 

@<TRIPOS>MOLECULE
2xy9_ligand
   87    91     1     0     0
SMALL
GAST_HUCK


@<TRIPOS>ATOM
      1 CAQ        16.4580    2.6720  -17.9990 C.ar      1 MOL        -0.0578
      2 CAK        16.3180    4.0510  -17.8150 C.ar      1 MOL        -0.0685
      3 CAH        16.3360    4.5890  -16.5310 C.ar      1 MOL        -0.0687
      4 CAL        16.4890    3.7450  -15.4330 C.ar      1 MOL        -0.0685
      5 CAR        16.6270    2.3660  -15.6130 C.ar      1 MOL        -0.0578
      6 CBP        16.6180    1.8260  -16.8970 C.ar      1 MOL        -0.0130
      7 CBB        16.7370    0.4420  -17.1050 C.3       1 MOL         0.1113
      8 OBJ        15.6900   -0.1350  -17.9080 O.3       1 MOL        -0.2506
      9 CBM        15.6310   -1.4700  -18.1670 C.2       1 MOL         0.3232
     10 OAB        16.3820   -2.2750  -17.6060 O.2       1 MOL        -0.3774
     11 NBI        14.6880   -1.8110  -19.0440 N.am      1 MOL        -0.2418
     12 CBX        14.4160   -3.1870  -19.4720 C.3       1 MOL         0.1176
     13 CBE        12.8980   -3.4150  -19.4940 C.3       1 MOL         0.0205
     14 CBQ        12.2780   -3.1620  -18.1070 C.ar      1 MOL        -0.0393
     15 CAS        12.1460   -4.2180  -17.2010 C.ar      1 MOL        -0.0602
     16 CAM        11.5880   -3.9910  -15.9410 C.ar      1 MOL        -0.0686
     17 CAI        11.1660   -2.7100  -15.5820 C.ar      1 MOL        -0.0687
     18 CAN        11.3050   -1.6500  -16.4820 C.ar      1 MOL        -0.0686
     19 CAT        11.8590   -1.8800  -17.7440 C.ar      1 MOL        -0.0602
     20 PBY        15.1970   -3.4250  -21.1190 P.3       1 MOL         0.0154
     21 OAG        16.7240   -3.0640  -20.8720 O.co2     1 MOL        -0.6174
     22 OAD        14.5190   -2.5610  -22.1160 O.co2     1 MOL        -0.6174
     23 N          13.8020   -4.7290  -24.9210 N.am      1 MOL        -0.2694
     24 CA         12.5610   -4.4410  -25.6530 C.3       1 MOL         0.1024
     25 C          11.8850   -5.7950  -25.9640 C.2       1 MOL         0.0619
     26 OXT        12.4890   -6.8160  -25.5880 O.co2     1 MOL        -0.5665
     27 O          10.7580   -5.7970  -26.5040 O.co2     1 MOL        -0.5665
     28 CB         12.8010   -3.6380  -26.9380 C.3       1 MOL         0.0108
     29 CG         14.0920   -3.9370  -27.7090 C.ar      1 MOL        -0.0499
     30 CD1        14.0910   -4.8880  -28.7290 C.ar      1 MOL        -0.0686
     31 CE1        15.2660   -5.1510  -29.4420 C.ar      1 MOL        -0.0398
     32 CZ         16.4350   -4.4490  -29.1390 C.ar      1 MOL         0.0805
     33 OH         17.5850   -4.6890  -29.8340 O.3       1 MOL        -0.3376
     34 CE2        16.4340   -3.4920  -28.1260 C.ar      1 MOL        -0.0398
     35 CD2        15.2640   -3.2350  -27.4110 C.ar      1 MOL        -0.0686
     36 CBF        15.1930   -5.1960  -21.5210 C.3       1 MOL         0.0375
     37 CBV        15.1470   -5.5000  -23.0340 C.3       1 MOL         0.0788
     38 CBN        13.7910   -5.0760  -23.6320 C.2       1 MOL         0.1848
     39 OAC        12.7710   -5.0980  -22.9430 O.2       1 MOL        -0.3964
     40 CBC        16.3400   -4.8820  -23.7840 C.3       1 MOL         0.0422
     41 CBS        16.8200   -5.6400  -25.0390 C.2       1 MOL         0.1411
     42 CBA        16.2980   -6.6560  -25.7330 C.2       1 MOL        -0.0269
     43 OBK        17.9840   -5.2760  -25.6370 O.3       1 MOL        -0.1670
     44 NBG        18.1460   -6.1230  -26.7410 N.2       1 MOL        -0.1519
     45 CBU        17.1050   -6.9470  -26.7720 C.2       1 MOL         0.0430
     46 CBT        16.9370   -7.9420  -27.7400 C.ar      1 MOL        -0.0150
     47 CAU        16.1740   -9.0770  -27.4800 C.ar      1 MOL        -0.0551
     48 CAO        16.0220  -10.0700  -28.4490 C.ar      1 MOL        -0.0621
     49 CAJ        16.6350   -9.9360  -29.6920 C.ar      1 MOL        -0.0626
     50 CAP        17.4040   -8.8000  -29.9600 C.ar      1 MOL        -0.0621
     51 CAV        17.5600   -7.8120  -28.9830 C.ar      1 MOL        -0.0551
     52 H1         16.4424    2.2569  -19.0002 H         1 MOL         0.0557
     53 H2         16.1953    4.7020  -18.6731 H         1 MOL         0.0599
     54 H3         16.2316    5.6582  -16.3864 H         1 MOL         0.0559
     55 H4         16.5011    4.1609  -14.4320 H         1 MOL         0.0599
     56 H5         16.7411    1.7162  -14.7529 H         1 MOL         0.0557
     57 H6         16.7299   -0.0545  -16.1235 H         1 MOL         0.0776
     58 H7         17.6979    0.2514  -17.6054 H         1 MOL         0.0776
     59 H8         14.1288   -1.0806  -19.4363 H         1 MOL         0.1888
     60 H9         14.8670   -3.8924  -18.7586 H         1 MOL         0.0787
     61 H10        12.6952   -4.4537  -19.7938 H         1 MOL         0.0465
     62 H11        12.4422   -2.7276  -20.2218 H         1 MOL         0.0465
     63 H12        12.4766   -5.2130  -17.4762 H         1 MOL         0.0557
     64 H13        11.4824   -4.8114  -15.2404 H         1 MOL         0.0599
     65 H14        10.7302   -2.5372  -14.6046 H         1 MOL         0.0559
     66 H15        10.9842   -0.6531  -16.2021 H         1 MOL         0.0599
     67 H16        11.9641   -1.0596  -18.4446 H         1 MOL         0.0557
     68 H17        14.6771   -4.6634  -25.4006 H         1 MOL         0.1876
     69 H18        11.8984   -3.8504  -25.0034 H         1 MOL         0.0747
     70 H19        12.8148   -2.5721  -26.6667 H         1 MOL         0.0446
     71 H20        11.9563   -3.8332  -27.6151 H         1 MOL         0.0446
     72 H21        13.1798   -5.4236  -28.9696 H         1 MOL         0.0530
     73 H22        15.2690   -5.8978  -30.2277 H         1 MOL         0.0525
     74 H23        18.2773   -4.1298  -29.5014 H         1 MOL         0.2458
     75 H24        17.3421   -2.9475  -27.8937 H         1 MOL         0.0525
     76 H25        15.2635   -2.4902  -26.6234 H         1 MOL         0.0530
     77 H26        14.3114   -5.6550  -21.0497 H         1 MOL         0.0495
     78 H27        16.1068   -5.6463  -21.1061 H         1 MOL         0.0495
     79 H28        15.2266   -6.5909  -23.1504 H         1 MOL         0.0581
     80 H29        17.1851   -4.8252  -23.0822 H         1 MOL         0.0513
     81 H30        16.0522   -3.8667  -24.0944 H         1 MOL         0.0513
     82 H31        15.3667   -7.1682  -25.4959 H         1 MOL         0.0289
     83 H32        15.6931   -9.1907  -26.5152 H         1 MOL         0.0616
     84 H33        15.4247  -10.9485  -28.2332 H         1 MOL         0.0615
     85 H34        16.5168  -10.7062  -30.4455 H         1 MOL         0.0610
     86 H35        17.8803   -8.6848  -30.9269 H         1 MOL         0.0615
     87 H36        18.1685   -6.9395  -29.1918 H         1 MOL         0.0616
@<TRIPOS>BOND
     1    1    2 ar 
     2    6    1 ar 
     3    2    3 ar 
     4    4    3 ar 
     5    5    4 ar 
     6    6    5 ar 
     7    7    6 1  
     8    8    7 1  
     9    9    8 1  
    10    9   10 2  
    11   11    9 am 
    12   12   11 1  
    13   12   13 1  
    14   20   12 1  
    15   13   14 1  
    16   14   15 ar 
    17   14   19 ar 
    18   15   16 ar 
    19   16   17 ar 
    20   18   17 ar 
    21   19   18 ar 
    22   20   21 ar 
    23   20   22 ar 
    24   36   20 1  
    25   23   24 1  
    26   38   23 am 
    27   24   25 1  
    28   24   28 1  
    29   25   26 ar 
    30   25   27 ar 
    31   28   29 1  
    32   29   30 ar 
    33   29   35 ar 
    34   30   31 ar 
    35   31   32 ar 
    36   32   33 1  
    37   34   32 ar 
    38   35   34 ar 
    39   37   36 1  
    40   37   38 1  
    41   37   40 1  
    42   38   39 2  
    43   40   41 1  
    44   41   42 2  
    45   41   43 1  
    46   42   45 1  
    47   43   44 1  
    48   44   45 2  
    49   45   46 1  
    50   46   47 ar 
    51   46   51 ar 
    52   47   48 ar 
    53   48   49 ar 
    54   49   50 ar 
    55   50   51 ar 
    56    1   52 1  
    57    2   53 1  
    58    3   54 1  
    59    4   55 1  
    60    5   56 1  
    61    7   57 1  
    62    7   58 1  
    63   11   59 1  
    64   12   60 1  
    65   13   61 1  
    66   13   62 1  
    67   15   63 1  
    68   16   64 1  
    69   17   65 1  
    70   18   66 1  
    71   19   67 1  
    72   23   68 1  
    73   24   69 1  
    74   28   70 1  
    75   28   71 1  
    76   30   72 1  
    77   31   73 1  
    78   33   74 1  
    79   34   75 1  
    80   35   76 1  
    81   36   77 1  
    82   36   78 1  
    83   37   79 1  
    84   40   80 1  
    85   40   81 1  
    86   42   82 1  
    87   47   83 1  
    88   48   84 1  
    89   49   85 1  
    90   50   86 1  
    91   51   87 1  
@<TRIPOS>SUBSTRUCTURE
     1 MOL         1

