### 
### Created by X-TOOL on Fri Sep 26 17:35:00 2014
### 

@<TRIPOS>MOLECULE
4loh_ligand
   68    74     1     0     0
SMALL
GAST_HUCK


@<TRIPOS>ATOM
      1 C2        -55.8220    3.1810   66.5030 C.ar      1 1SY         0.0533
      2 N01       -56.6460    6.6750   66.5980 N.pl3     1 1SY        -0.3152
      3 C6        -56.5020    5.3850   66.9380 C.ar      1 1SY         0.1298
      4 N1        -55.9770    4.5060   66.1300 N.ar      1 1SY        -0.2698
      5 N3        -56.2230    2.7770   67.7330 N.ar      1 1SY        -0.2714
      6 C4        -56.7510    3.7350   68.5170 C.ar      1 1SY         0.1613
      7 C5        -56.8660    5.0020   68.1480 C.ar      1 1SY         0.1045
      8 N7        -57.4210    5.6540   69.1520 N.2       1 1SY        -0.2958
      9 C8        -57.6400    4.8140   70.1560 C.2       1 1SY         0.1123
     10 N9        -57.2220    3.6250   69.7310 N.pl3     1 1SY        -0.1919
     11 C1'       -57.1100    2.3280   70.1930 C.3       1 1SY         0.2014
     12 C2'       -55.8170    2.1110   70.5680 C.3       1 1SY         0.1439
     13 O2'       -55.5150    0.5870   70.5310 O.3       1 1SY        -0.3832
     14 C3'       -55.9180    2.7070   71.9900 C.3       1 1SY         0.1540
     15 C4'       -57.1990    2.1300   72.5380 C.3       1 1SY         0.1242
     16 C16       -57.8180    2.8620   73.7640 C.3       1 1SY         0.1128
     17 O17       -58.0520    4.1860   73.3590 O.3       1 1SY        -0.2514
     18 P18       -58.1220    5.3240   74.4520 P.3       1 1SY         0.2558
     19 O19       -58.2850    6.6080   73.7510 O.co2     1 1SY        -0.6177
     20 O20       -56.8590    5.5490   75.3660 O.3       1 1SY        -0.2424
     21 C21       -55.5740    5.4880   74.8530 C.3       1 1SY         0.1796
     22 C22       -54.9320    4.4450   75.7340 C.3       1 1SY         0.1205
     23 O23       -55.4310    4.3240   77.2020 O.3       1 1SY        -0.3860
     24 C24       -53.5080    4.8580   75.6540 C.3       1 1SY         0.1194
     25 C25       -52.8470    3.9320   74.6380 C.3       1 1SY         0.1124
     26 O26       -53.3560    4.2090   73.2980 O.3       1 1SY        -0.2514
     27 P27       -53.3850    2.9870   72.3280 P.3       1 1SY         0.2557
     28 O28       -54.8040    2.1850   72.6620 O.3       1 1SY        -0.2453
     29 O29       -52.3000    2.0280   72.8050 O.co2     1 1SY        -0.6177
     30 O30       -53.2810    3.5950   70.9640 O.co2     1 1SY        -0.6177
     31 O31       -53.4480    6.2690   75.1930 O.3       1 1SY        -0.3344
     32 C32       -54.7440    6.7950   75.0090 C.3       1 1SY         0.2273
     33 N33       -54.5310    7.4790   73.7720 N.pl3     1 1SY        -0.0950
     34 C34       -53.9920    7.0880   72.5960 C.2       1 1SY         0.1855
     35 N35       -54.0600    8.1100   71.7500 N.2       1 1SY        -0.1929
     36 C36       -54.8800    8.7130   73.6430 C.2       1 1SY         0.3268
     37 C37       -54.6190    9.1170   72.3820 C.2       1 1SY         0.2558
     38 C38       -54.8910   10.3590   72.0140 C.2       1 1SY         0.2628
     39 N39       -55.4690   11.1450   72.9530 N.am      1 1SY        -0.2478
     40 C40       -55.7330   10.6970   74.2640 C.cat     1 1SY         0.2041
     41 N41       -56.2910   11.3970   75.2410 N.pl3     1 1SY        -0.3327
     42 N42       -55.4380    9.4700   74.6030 N.pl3     1 1SY        -0.1901
     43 O43       -54.6530   10.8180   70.8840 O.2       1 1SY        -0.3594
     44 O44       -59.2160    5.0850   75.5120 O.co2     1 1SY        -0.6177
     45 O4'       -57.9600    2.2550   71.4110 O.3       1 1SY        -0.3360
     46 H1        -55.3816    2.4698   65.8136 H         1 1SY         0.0996
     47 H2        -57.0655    7.3394   67.2640 H         1 1SY         0.1820
     48 H3        -56.3370    7.0009   65.6710 H         1 1SY         0.1820
     49 H4        -58.0726    5.0496   71.1272 H         1 1SY         0.1349
     50 H5        -57.4287    1.6001   69.4323 H         1 1SY         0.0996
     51 H6        -55.0890    2.6502   69.9441 H         1 1SY         0.0680
     52 H7        -54.6141    0.4374   70.7924 H         1 1SY         0.2101
     53 H8        -55.9252    3.8069   72.0018 H         1 1SY         0.0712
     54 H9        -57.0604    1.0739   72.8126 H         1 1SY         0.0655
     55 H10       -57.1180    2.8418   74.6123 H         1 1SY         0.0647
     56 H11       -58.7630    2.3812   74.0568 H         1 1SY         0.0647
     57 H12       -55.5929    5.1859   73.7955 H         1 1SY         0.0742
     58 H13       -55.0656    3.4559   75.2716 H         1 1SY         0.0652
     59 H14       -56.3575    4.1142   77.2041 H         1 1SY         0.2100
     60 H15       -53.0183    4.7627   76.6344 H         1 1SY         0.0651
     61 H16       -53.0672    2.8870   74.9015 H         1 1SY         0.0647
     62 H17       -51.7589    4.0927   74.6538 H         1 1SY         0.0647
     63 H18       -55.1187    7.4487   75.8104 H         1 1SY         0.1026
     64 H19       -53.5745    6.1058   72.3795 H         1 1SY         0.1823
     65 H20       -55.7189   12.0815   72.7068 H         1 1SY         0.1819
     66 H21       -56.4368   10.9660   76.1650 H         1 1SY         0.1774
     67 H22       -56.5789   12.3721   75.0764 H         1 1SY         0.1774
     68 H23       -55.6220    9.1052   75.5485 H         1 1SY         0.2519
@<TRIPOS>BOND
     1    4    1 ar 
     2    1    5 ar 
     3    3    2 1  
     4    3    4 ar 
     5    3    7 ar 
     6    5    6 ar 
     7    6    7 ar 
     8    6   10 1  
     9    7    8 1  
    10    8    9 2  
    11    9   10 1  
    12   10   11 1  
    13   11   12 1  
    14   11   45 1  
    15   12   13 1  
    16   12   14 1  
    17   14   15 1  
    18   14   28 1  
    19   15   16 1  
    20   15   45 1  
    21   16   17 1  
    22   17   18 1  
    23   18   19 ar 
    24   18   20 1  
    25   18   44 ar 
    26   20   21 1  
    27   21   22 1  
    28   21   32 1  
    29   22   23 1  
    30   22   24 1  
    31   24   25 1  
    32   24   31 1  
    33   25   26 1  
    34   26   27 1  
    35   27   28 1  
    36   27   29 ar 
    37   27   30 ar 
    38   31   32 1  
    39   32   33 1  
    40   33   34 1  
    41   33   36 1  
    42   34   35 2  
    43   35   37 1  
    44   36   37 2  
    45   36   42 1  
    46   37   38 1  
    47   38   39 am 
    48   38   43 2  
    49   39   40 ar 
    50   40   41 ar 
    51   40   42 ar 
    52    1   46 1  
    53    2   47 1  
    54    2   48 1  
    55    9   49 1  
    56   11   50 1  
    57   12   51 1  
    58   13   52 1  
    59   14   53 1  
    60   15   54 1  
    61   16   55 1  
    62   16   56 1  
    63   21   57 1  
    64   22   58 1  
    65   23   59 1  
    66   24   60 1  
    67   25   61 1  
    68   25   62 1  
    69   32   63 1  
    70   34   64 1  
    71   39   65 1  
    72   41   66 1  
    73   41   67 1  
    74   42   68 1  
@<TRIPOS>SUBSTRUCTURE
     1 1SY         1

