### 
### Created by X-TOOL on Sun Nov 13 14:27:24 2016
### 

@<TRIPOS>MOLECULE
4zei_ligand
   23    23     1     0     0
SMALL
GAST_HUCK


@<TRIPOS>ATOM
      1 OP2       -17.4160  -25.4000   20.4820 O.co2     1 LAO        -0.5537
      2 P         -16.9090  -26.8400   20.1720 P.3       1 LAO         0.2014
      3 OP1       -18.0530  -27.8500   20.3410 O.co2     1 LAO        -0.5537
      4 OP3       -15.7720  -27.1370   21.1450 O.co2     1 LAO        -0.5537
      5 O2        -16.3660  -26.8670   18.6770 O.3       1 LAO        -0.2652
      6 C2        -16.0840  -28.0300   17.8800 C.3       1 LAO         0.1676
      7 C3        -14.6780  -28.2700   17.8580 C.3       1 LAO         0.1184
      8 O3        -14.1430  -28.6540   19.1900 O.3       1 LAO        -0.3861
      9 C4        -14.2270  -29.2210   16.9040 C.3       1 LAO         0.1073
     10 O4        -14.5700  -30.5410   17.3340 O.3       1 LAO        -0.3868
     11 C5        -14.8030  -29.0240   15.5130 C.3       1 LAO         0.0792
     12 O5        -16.1690  -28.7470   15.5360 O.3       1 LAO        -0.3459
     13 C1        -16.5550  -27.7510   16.4610 C.3       1 LAO         0.1898
     14 O1        -17.8960  -27.5320   16.3590 O.3       1 LAO        -0.3646
     15 H1        -16.6077  -28.9058   18.2906 H         1 LAO         0.0727
     16 H2        -14.2156  -27.3097   17.5861 H         1 LAO         0.0651
     17 H3        -13.2070  -28.8024   19.1233 H         1 LAO         0.2100
     18 H4        -13.1322  -29.1377   16.8378 H         1 LAO         0.0643
     19 H5        -14.2655  -31.1712   16.6916 H         1 LAO         0.2100
     20 H6        -14.6389  -29.9421   14.9298 H         1 LAO         0.0587
     21 H7        -14.2808  -28.1847   15.0304 H         1 LAO         0.0587
     22 H8        -16.0570  -26.8197   16.1535 H         1 LAO         0.0939
     23 H9        -18.1025  -27.2437   15.4777 H         1 LAO         0.2126
@<TRIPOS>BOND
     1    1    2 ar 
     2    2    3 ar 
     3    2    4 ar 
     4    2    5 1  
     5    5    6 1  
     6    6    7 1  
     7    6   13 1  
     8    7    8 1  
     9    7    9 1  
    10    9   10 1  
    11    9   11 1  
    12   11   12 1  
    13   12   13 1  
    14   13   14 1  
    15    6   15 1  
    16    7   16 1  
    17    8   17 1  
    18    9   18 1  
    19   10   19 1  
    20   11   20 1  
    21   11   21 1  
    22   13   22 1  
    23   14   23 1  
@<TRIPOS>SUBSTRUCTURE
     1 LAO         1

