REMARK  5 active torsions:
REMARK  status: ('A' for Active; 'I' for Inactive)
REMARK    1  A    between atoms: P_2  and  O2_5 
REMARK    2  A    between atoms: O2_5  and  C2_6 
REMARK    3  A    between atoms: C3_7  and  O3_8 
REMARK    4  A    between atoms: C4_9  and  O4_10 
REMARK    5  A    between atoms: C1_13  and  O1_14 
ROOT
ATOM      1  C2  LAO d         -16.084 -28.030  17.880  0.00  0.00     0.221 C 
ATOM      2  C3  LAO d         -14.678 -28.270  17.858  0.00  0.00     0.183 C 
ATOM      3  C4  LAO d         -14.227 -29.221  16.904  0.00  0.00     0.173 C 
ATOM      4  C5  LAO d         -14.803 -29.024  15.513  0.00  0.00     0.205 C 
ATOM      5  O5  LAO d         -16.169 -28.747  15.536  0.00  0.00    -0.356 OA
ATOM      6  C1  LAO d         -16.555 -27.751  16.461  0.00  0.00     0.288 C 
ENDROOT
BRANCH   1   7
ATOM      7  O2  LAO d         -16.366 -26.867  18.677  0.00  0.00    -0.270 OA
BRANCH   7   8
ATOM      8  P   LAO d         -16.909 -26.840  20.172  0.00  0.00     0.422 P 
ATOM      9  OP2 LAO d         -17.416 -25.400  20.482  0.00  0.00    -0.617 OA
ATOM     10  OP1 LAO d         -18.053 -27.850  20.341  0.00  0.00    -0.617 OA
ATOM     11  OP3 LAO d         -15.772 -27.137  21.145  0.00  0.00    -0.617 OA
ENDBRANCH   7   8
ENDBRANCH   1   7
BRANCH   2  12
ATOM     12  O3  LAO d         -14.143 -28.654  19.190  0.00  0.00    -0.390 OA
ATOM     13  H3  LAO d         -13.207 -28.802  19.123  0.00  0.00     0.210 HD
ENDBRANCH   2  12
BRANCH   6  14
ATOM     14  O1  LAO d         -17.896 -27.532  16.359  0.00  0.00    -0.369 OA
ATOM     15  H9  LAO d         -18.102 -27.244  15.478  0.00  0.00     0.212 HD
ENDBRANCH   6  14
BRANCH   3  16
ATOM     16  O4  LAO d         -14.570 -30.541  17.334  0.00  0.00    -0.391 OA
ATOM     17  H5  LAO d         -14.265 -31.171  16.692  0.00  0.00     0.210 HD
ENDBRANCH   3  16
TORSDOF 5
