### 
### Created by X-TOOL on Fri Sep 26 17:34:43 2014
### 

@<TRIPOS>MOLECULE
2zxg_ligand
   55    56     1     0     0
SMALL
GAST_HUCK


@<TRIPOS>ATOM
      1 O2         71.8700   45.1120    6.4610 O.co2     1 S23        -0.6154
      2 P          72.1010   46.1770    7.3850 P.3       1 S23         0.0378
      3 O1         73.4930   46.0300    7.7980 O.co2     1 S23        -0.6154
      4 C1         71.1580   45.9650    8.6670 C.3       1 S23         0.0344
      5 N1         71.4820   44.7800    9.4690 N.4       1 S23         0.2334
      6 C2         71.1840   47.1000    9.7020 C.3       1 S23        -0.0049
      7 C3         71.8480   47.6150    6.7410 C.3       1 S23         0.0400
      8 C4         72.8780   48.1790    5.7160 C.3       1 S23         0.0742
      9 C6         72.5780   47.7440    4.2590 C.3       1 S23         0.0021
     10 C7         73.6690   48.2390    3.3160 C.ar      1 S23        -0.0405
     11 C8         74.7960   47.4400    3.0910 C.ar      1 S23        -0.0602
     12 C10        75.8130   47.8810    2.2430 C.ar      1 S23        -0.0686
     13 C12        75.7010   49.1300    1.6350 C.ar      1 S23        -0.0687
     14 C11        74.5930   49.9470    1.8610 C.ar      1 S23        -0.0686
     15 C9         73.5650   49.4970    2.7000 C.ar      1 S23        -0.0602
     16 C5         73.0180   49.6960    5.7370 C.2       1 S23         0.1844
     17 O3         72.0740   50.4400    5.5170 O.2       1 S23        -0.3964
     18 N2         74.2500   50.1710    5.9820 N.am      1 S23        -0.2692
     19 C13        74.6180   51.5710    5.8030 C.3       1 S23         0.1038
     20 C14        75.9130   51.6740    5.0440 C.2       1 S23         0.0621
     21 O4         76.0940   52.6740    4.3060 O.co2     1 S23        -0.5664
     22 O5         76.7570   50.7600    5.1650 O.co2     1 S23        -0.5664
     23 C15        74.7830   52.2830    7.1470 C.3       1 S23         0.0159
     24 C16        73.5060   52.2970    7.9640 C.ar      1 S23        -0.0392
     25 C17        72.5770   53.3280    7.7840 C.ar      1 S23        -0.0602
     26 C19        71.4000   53.3550    8.5390 C.ar      1 S23        -0.0686
     27 C21        71.1520   52.3490    9.4760 C.ar      1 S23        -0.0687
     28 C20        72.0710   51.3010    9.6360 C.ar      1 S23        -0.0686
     29 C18        73.2580   51.2820    8.8930 C.ar      1 S23        -0.0602
     30 H1         70.1319   45.8639    8.2839 H         1 S23         0.1062
     31 H2         70.8479   44.7194   10.2502 H         1 S23         0.2012
     32 H3         72.4281   44.8528    9.8091 H         1 S23         0.2012
     33 H4         71.3926   43.9536    8.8988 H         1 S23         0.2012
     34 H5         70.5070   46.8537   10.5333 H         1 S23         0.0301
     35 H6         70.8563   48.0366    9.2274 H         1 S23         0.0301
     36 H7         72.2073   47.2223   10.0865 H         1 S23         0.0301
     37 H8         71.7936   48.3344    7.5714 H         1 S23         0.0496
     38 H9         70.8754   47.5717    6.2290 H         1 S23         0.0496
     39 H10        73.8549   47.7568    5.9943 H         1 S23         0.0576
     40 H11        71.6115   48.1667    3.9472 H         1 S23         0.0454
     41 H12        72.5303   46.6461    4.2120 H         1 S23         0.0454
     42 H13        74.8792   46.4748    3.5773 H         1 S23         0.0557
     43 H14        76.6811   47.2584    2.0592 H         1 S23         0.0599
     44 H15        76.4891   49.4729    0.9745 H         1 S23         0.0559
     45 H16        74.5279   50.9218    1.3914 H         1 S23         0.0599
     46 H17        72.6930   50.1172    2.8730 H         1 S23         0.0557
     47 H18        74.9500   49.5331    6.3032 H         1 S23         0.1876
     48 H19        73.8234   52.0716    5.2303 H         1 S23         0.0749
     49 H20        75.0915   53.3220    6.9590 H         1 S23         0.0467
     50 H21        75.5643   51.7673    7.7246 H         1 S23         0.0467
     51 H22        72.7703   54.1084    7.0569 H         1 S23         0.0557
     52 H23        70.6819   54.1546    8.3974 H         1 S23         0.0599
     53 H24        70.2512   52.3780   10.0783 H         1 S23         0.0559
     54 H25        71.8613   50.5022   10.3381 H         1 S23         0.0599
     55 H26        73.9794   50.4859    9.0372 H         1 S23         0.0557
@<TRIPOS>BOND
     1    1    2 ar 
     2    2    3 ar 
     3    2    4 1  
     4    2    7 1  
     5    4    5 1  
     6    4    6 1  
     7    7    8 1  
     8    8    9 1  
     9    8   16 1  
    10    9   10 1  
    11   10   11 ar 
    12   10   15 ar 
    13   11   12 ar 
    14   12   13 ar 
    15   13   14 ar 
    16   14   15 ar 
    17   16   17 2  
    18   16   18 am 
    19   18   19 1  
    20   19   20 1  
    21   19   23 1  
    22   20   21 ar 
    23   20   22 ar 
    24   23   24 1  
    25   24   25 ar 
    26   24   29 ar 
    27   25   26 ar 
    28   26   27 ar 
    29   27   28 ar 
    30   28   29 ar 
    31    4   30 1  
    32    5   31 1  
    33    5   32 1  
    34    5   33 1  
    35    6   34 1  
    36    6   35 1  
    37    6   36 1  
    38    7   37 1  
    39    7   38 1  
    40    8   39 1  
    41    9   40 1  
    42    9   41 1  
    43   11   42 1  
    44   12   43 1  
    45   13   44 1  
    46   14   45 1  
    47   15   46 1  
    48   18   47 1  
    49   19   48 1  
    50   23   49 1  
    51   23   50 1  
    52   25   51 1  
    53   26   52 1  
    54   27   53 1  
    55   28   54 1  
    56   29   55 1  
@<TRIPOS>SUBSTRUCTURE
     1 S23         1

