REMARK  11 active torsions:
REMARK  status: ('A' for Active; 'I' for Inactive)
REMARK    1  A    between atoms: P_2  and  C1_4 
REMARK    2  A    between atoms: P_2  and  C3_7 
REMARK    3  A    between atoms: C1_4  and  N1_5 
REMARK    4  A    between atoms: C3_7  and  C4_8 
REMARK    5  A    between atoms: C4_8  and  C6_9 
REMARK    6  A    between atoms: C4_8  and  C5_16 
REMARK    7  A    between atoms: C6_9  and  C7_10 
REMARK       I    between atoms: C5_16  and  N2_18 
REMARK    8  A    between atoms: N2_18  and  C13_19 
REMARK    9  A    between atoms: C13_19  and  C14_20 
REMARK   10  A    between atoms: C13_19  and  C15_23 
REMARK   11  A    between atoms: C15_23  and  C16_24 
ROOT
ATOM      1  C4  S23 d          72.878  48.179   5.716  0.00  0.00     0.092 C 
ENDROOT
BRANCH   1   2
ATOM      2  C3  S23 d          71.848  47.615   6.741  0.00  0.00     0.120 C 
BRANCH   2   3
ATOM      3  P   S23 d          72.101  46.177   7.385  0.00  0.00     0.137 P 
ATOM      4  O2  S23 d          71.870  45.112   6.461  0.00  0.00    -0.666 OA
ATOM      5  O1  S23 d          73.493  46.030   7.798  0.00  0.00    -0.666 OA
BRANCH   3   6
ATOM      6  C1  S23 d          71.158  45.965   8.667  0.00  0.00     0.270 C 
ATOM      7  C2  S23 d          71.184  47.100   9.702  0.00  0.00     0.051 C 
BRANCH   6   8
ATOM      8  N1  S23 d          71.482  44.780   9.469  0.00  0.00    -0.066 N 
ATOM      9  H2  S23 d          70.848  44.719  10.250  0.00  0.00     0.275 HD
ATOM     10  H3  S23 d          72.428  44.853   9.809  0.00  0.00     0.275 HD
ATOM     11  H4  S23 d          71.393  43.954   8.899  0.00  0.00     0.275 HD
ENDBRANCH   6   8
ENDBRANCH   3   6
ENDBRANCH   2   3
ENDBRANCH   1   2
BRANCH   1  12
ATOM     12  C6  S23 d          72.578  47.744   4.259  0.00  0.00     0.053 C 
BRANCH  12  13
ATOM     13  C7  S23 d          73.669  48.239   3.316  0.00  0.00    -0.057 A 
ATOM     14  C8  S23 d          74.796  47.440   3.091  0.00  0.00     0.007 A 
ATOM     15  C10 S23 d          75.813  47.881   2.243  0.00  0.00     0.001 A 
ATOM     16  C12 S23 d          75.701  49.130   1.635  0.00  0.00     0.000 A 
ATOM     17  C11 S23 d          74.593  49.947   1.861  0.00  0.00     0.001 A 
ATOM     18  C9  S23 d          73.565  49.497   2.700  0.00  0.00     0.007 A 
ENDBRANCH  12  13
ENDBRANCH   1  12
BRANCH   1  19
ATOM     19  C5  S23 d          73.018  49.696   5.737  0.00  0.00     0.223 C 
ATOM     20  O3  S23 d          72.074  50.440   5.517  0.00  0.00    -0.273 OA
ATOM     21  N2  S23 d          74.250  50.171   5.982  0.00  0.00    -0.346 N 
ATOM     22  H18 S23 d          74.950  49.533   6.303  0.00  0.00     0.163 HD
BRANCH  21  23
ATOM     23  C13 S23 d          74.618  51.571   5.803  0.00  0.00     0.189 C 
BRANCH  23  24
ATOM     24  C14 S23 d          75.913  51.674   5.044  0.00  0.00     0.197 C 
ATOM     25  O4  S23 d          76.094  52.674   4.306  0.00  0.00    -0.646 OA
ATOM     26  O5  S23 d          76.757  50.760   5.165  0.00  0.00    -0.646 OA
ENDBRANCH  23  24
BRANCH  23  27
ATOM     27  C15 S23 d          74.783  52.283   7.147  0.00  0.00     0.074 C 
BRANCH  27  28
ATOM     28  C16 S23 d          73.506  52.297   7.964  0.00  0.00    -0.056 A 
ATOM     29  C17 S23 d          72.577  53.328   7.784  0.00  0.00     0.007 A 
ATOM     30  C19 S23 d          71.400  53.355   8.539  0.00  0.00     0.001 A 
ATOM     31  C21 S23 d          71.152  52.349   9.476  0.00  0.00     0.000 A 
ATOM     32  C20 S23 d          72.071  51.301   9.636  0.00  0.00     0.001 A 
ATOM     33  C18 S23 d          73.258  51.282   8.893  0.00  0.00     0.007 A 
ENDBRANCH  27  28
ENDBRANCH  23  27
ENDBRANCH  21  23
ENDBRANCH   1  19
TORSDOF 11
