### 
### Created by X-TOOL on Fri Sep 26 17:34:30 2014
### 

@<TRIPOS>MOLECULE
1yq7_ligand
   24    24     1     0     0
SMALL
GAST_HUCK


@<TRIPOS>ATOM
      1 O12        17.1130   35.6480   -7.1730 O.co2     1 RIS        -0.5593
      2 P9         15.6220   35.7510   -7.5440 P.3       1 RIS         0.1123
      3 O11        15.2410   36.8680   -8.4700 O.co2     1 RIS        -0.5593
      4 O10        14.6530   35.7080   -6.4380 O.co2     1 RIS        -0.5593
      5 C8         15.2300   34.2510   -8.5000 C.3       1 RIS         0.2151
      6 O13        13.9550   34.4130   -9.0880 O.3       1 RIS        -0.3578
      7 P14        16.4390   34.0860   -9.8350 P.3       1 RIS         0.1123
      8 O16        16.5730   35.4550  -10.3770 O.co2     1 RIS        -0.5593
      9 O15        17.6320   33.7370   -9.0970 O.co2     1 RIS        -0.5593
     10 O17        16.2430   33.1400  -11.0180 O.co2     1 RIS        -0.5593
     11 C7         15.1780   33.1050   -7.4750 C.3       1 RIS         0.0477
     12 C2         15.0330   31.7070   -8.0640 C.ar      1 RIS        -0.0094
     13 C1         15.6350   30.6600   -7.3810 C.ar      1 RIS        -0.0403
     14 C6         15.5210   29.3720   -7.8830 C.ar      1 RIS        -0.0404
     15 C5         14.7750   29.1440   -8.9990 C.ar      1 RIS         0.0042
     16 N4         14.1900   30.1470   -9.6420 N.ar      1 RIS        -0.3044
     17 C3         14.2860   31.4040   -9.1910 C.ar      1 RIS         0.0127
     18 H1         13.9661   35.1698   -9.6620 H         1 RIS         0.2134
     19 H2         14.3204   33.2835   -6.8097 H         1 RIS         0.0500
     20 H3         16.1085   33.1314   -6.8890 H         1 RIS         0.0500
     21 H4         16.1872   30.8462   -6.4670 H         1 RIS         0.0678
     22 H5         16.0244   28.5493   -7.3882 H         1 RIS         0.0693
     23 H6         14.6574   28.1311   -9.3668 H         1 RIS         0.0767
     24 H7         13.7700   32.1990   -9.7171 H         1 RIS         0.0765
@<TRIPOS>BOND
     1    1    2 ar 
     2    2    3 ar 
     3    2    4 ar 
     4    2    5 1  
     5    5    6 1  
     6    5    7 1  
     7    5   11 1  
     8    7    8 ar 
     9    7    9 ar 
    10    7   10 ar 
    11   11   12 1  
    12   12   13 ar 
    13   12   17 ar 
    14   13   14 ar 
    15   14   15 ar 
    16   15   16 ar 
    17   16   17 ar 
    18    6   18 1  
    19   11   19 1  
    20   11   20 1  
    21   13   21 1  
    22   14   22 1  
    23   15   23 1  
    24   17   24 1  
@<TRIPOS>SUBSTRUCTURE
     1 RIS         1

