### 
### Created by X-TOOL on Fri Sep 26 17:34:10 2014
### 

@<TRIPOS>MOLECULE
1tlp_ligand
   69    71     1     0     0
SMALL
GAST_HUCK


@<TRIPOS>ATOM
      1 C1         51.1830   16.9140   -8.2540 C.3       1 MOL         0.2225
      2 O1         50.9200   18.1370   -7.6430 O.3       1 MOL        -0.2276
      3 C2         50.1710   16.1130   -7.5020 C.3       1 MOL         0.1394
      4 O2         49.9760   14.7420   -8.0340 O.3       1 MOL        -0.3837
      5 C3         48.8650   16.7500   -7.7870 C.3       1 MOL         0.1144
      6 O3         48.0220   16.0090   -6.9240 O.3       1 MOL        -0.3864
      7 C4         48.6100   16.5020   -9.2630 C.3       1 MOL         0.1095
      8 O4         47.2680   16.7170   -9.5930 O.3       1 MOL        -0.3866
      9 C5         49.5720   17.3760  -10.0840 C.3       1 MOL         0.0877
     10 O5         50.9170   16.9670   -9.6780 O.3       1 MOL        -0.3388
     11 C6         49.3600   17.3970  -11.6040 C.3       1 MOL        -0.0360
     12 P          51.7150   18.9020   -6.5960 P.3       1 MOL         0.2076
     13 O1P        53.2310   19.0530   -6.8700 O.co2     1 MOL        -0.6075
     14 O2P        51.1940   20.2340   -6.3250 O.co2     1 MOL        -0.6075
     15 N          51.6670   18.1030   -5.4180 N.am      1 MOL        -0.2546
     16 CA         52.6880   17.9800   -4.3880 C.3       1 MOL         0.1246
     17 C          53.5040   16.7200   -4.3740 C.2       1 MOL         0.1995
     18 O          54.6370   16.8510   -3.9330 O.2       1 MOL        -0.3949
     19 CB         52.1440   18.2040   -2.9860 C.3       1 MOL        -0.0136
     20 CG         53.2360   18.0740   -1.8520 C.3       1 MOL        -0.0429
     21 CD1        54.3930   19.0990   -1.8240 C.3       1 MOL        -0.0625
     22 CD2        52.6370   18.1190   -0.4400 C.3       1 MOL        -0.0625
     23 N          52.9100   15.5590   -4.8310 N.am      1 MOL        -0.2688
     24 CA         53.5360   14.2310   -4.9710 C.3       1 MOL         0.0986
     25 C          52.6730   13.2180   -5.7660 C.2       1 MOL         0.0613
     26 O          51.4900   13.6410   -5.9320 O.co2     1 MOL        -0.5665
     27 CB         54.0320   13.7790   -3.5780 C.3       1 MOL        -0.0013
     28 CG         52.9380   13.3650   -2.6840 C.2       1 MOL        -0.0424
     29 CD1        52.1560   14.1970   -1.9470 C.2       1 MOL         0.0166
     30 CD2        52.4770   12.0380   -2.4410 C.ar      1 MOL        -0.0214
     31 NE1        51.2200   13.4920   -1.2530 N.pl3     1 MOL        -0.2891
     32 CE2        51.3940   12.1660   -1.5210 C.ar      1 MOL         0.0603
     33 CE3        52.8730   10.7720   -2.9060 C.ar      1 MOL        -0.0747
     34 CZ2        50.6760   11.0820   -1.0520 C.ar      1 MOL        -0.0443
     35 CZ3        52.1450    9.6940   -2.4440 C.ar      1 MOL        -0.0792
     36 CH2        51.0840    9.8480   -1.5190 C.ar      1 MOL        -0.0768
     37 OXT        53.1840   12.0870   -6.1640 O.co2     1 MOL        -0.5665
     38 H1         52.2109   16.5625   -8.0814 H         1 MOL         0.1002
     39 H2         50.4135   16.0931   -6.4292 H         1 MOL         0.0675
     40 H3         49.3229   14.2909   -7.5120 H         1 MOL         0.2101
     41 H4         48.8390   17.8259   -7.5597 H         1 MOL         0.0648
     42 H5         48.0590   15.0895   -7.1597 H         1 MOL         0.2100
     43 H6         48.8388   15.4482   -9.4802 H         1 MOL         0.0646
     44 H7         46.7206   16.1265   -9.0888 H         1 MOL         0.2100
     45 H8         49.4257   18.4149   -9.7534 H         1 MOL         0.0621
     46 H9         50.1084   18.0552  -12.0695 H         1 MOL         0.0255
     47 H10        48.3509   17.7730  -11.8283 H         1 MOL         0.0255
     48 H11        49.4688   16.3779  -12.0035 H         1 MOL         0.0255
     49 H12        50.8355   17.5641   -5.2829 H         1 MOL         0.1685
     50 H13        53.3965   18.7969   -4.5894 H         1 MOL         0.0753
     51 H14        51.3563   17.4600   -2.7963 H         1 MOL         0.0311
     52 H15        51.7128   19.2148   -2.9383 H         1 MOL         0.0311
     53 H16        53.6907   17.0830   -1.9973 H         1 MOL         0.0298
     54 H17        55.0626   18.8731   -0.9811 H         1 MOL         0.0232
     55 H18        53.9823   20.1124   -1.7046 H         1 MOL         0.0232
     56 H19        54.9574   19.0408   -2.7664 H         1 MOL         0.0232
     57 H20        51.7982   17.4104   -0.3748 H         1 MOL         0.0232
     58 H21        52.2753   19.1358   -0.2273 H         1 MOL         0.0232
     59 H22        53.4080   17.8430    0.2944 H         1 MOL         0.0232
     60 H23        51.9483   15.6269   -5.0964 H         1 MOL         0.1876
     61 H24        54.4397   14.3734   -5.5817 H         1 MOL         0.0741
     62 H25        54.5701   14.6159   -3.1090 H         1 MOL         0.0390
     63 H26        54.7181   12.9293   -3.7090 H         1 MOL         0.0390
     64 H27        52.2632   15.2803   -1.9156 H         1 MOL         0.0795
     65 H28        50.5027   13.8921   -0.6315 H         1 MOL         0.2216
     66 H29        53.7048   10.6489   -3.5901 H         1 MOL         0.0540
     67 H30        49.8468   11.1932   -0.3627 H         1 MOL         0.0541
     68 H31        52.3928    8.7005   -2.7997 H         1 MOL         0.0510
     69 H32        50.5714    8.9616   -1.1631 H         1 MOL         0.0530
@<TRIPOS>BOND
     1   15   16 1  
     2   16   19 1  
     3   16   17 1  
     4   17   18 2  
     5   19   20 1  
     6   20   21 1  
     7   20   22 1  
     8   23   24 1  
     9   24   27 1  
    10   24   25 1  
    11   25   26 ar 
    12   25   37 ar 
    13   27   28 1  
    14   28   29 2  
    15   28   30 1  
    16   30   33 ar 
    17   30   32 ar 
    18   32   34 ar 
    19   32   31 1  
    20   29   31 1  
    21   34   36 ar 
    22   35   36 ar 
    23   33   35 ar 
    24   17   23 am 
    25    2    1 1  
    26    1    3 1  
    27    1   10 1  
    28   12    2 1  
    29    3    4 1  
    30    3    5 1  
    31    5    6 1  
    32    5    7 1  
    33    7    8 1  
    34    9    7 1  
    35   10    9 1  
    36    9   11 1  
    37   12   13 ar 
    38   12   14 ar 
    39   12   15 am 
    40    1   38 1  
    41    3   39 1  
    42    4   40 1  
    43    5   41 1  
    44    6   42 1  
    45    7   43 1  
    46    8   44 1  
    47    9   45 1  
    48   11   46 1  
    49   11   47 1  
    50   11   48 1  
    51   15   49 1  
    52   16   50 1  
    53   19   51 1  
    54   19   52 1  
    55   20   53 1  
    56   21   54 1  
    57   21   55 1  
    58   21   56 1  
    59   22   57 1  
    60   22   58 1  
    61   22   59 1  
    62   23   60 1  
    63   24   61 1  
    64   27   62 1  
    65   27   63 1  
    66   29   64 1  
    67   31   65 1  
    68   33   66 1  
    69   34   67 1  
    70   35   68 1  
    71   36   69 1  
@<TRIPOS>SUBSTRUCTURE
     1 MOL         1

