REMARK  11 active torsions:
REMARK  status: ('A' for Active; 'I' for Inactive)
REMARK    1  A    between atoms: O3B_8  and  PG_1 
REMARK    2  A    between atoms: PB_5  and  O3B_8 
REMARK    3  A    between atoms: O3A_12  and  PB_5 
REMARK    4  A    between atoms: PA_9  and  O3A_12 
REMARK    5  A    between atoms: PA_9  and  O13_13 
REMARK    6  A    between atoms: O13_13  and  C14_14 
REMARK    7  A    between atoms: C14_14  and  C15_15 
REMARK    8  A    between atoms: C17_17  and  O18_18 
REMARK    9  A    between atoms: C19_19  and  O20_20 
REMARK   10  A    between atoms: C21_21  and  N9_22 
REMARK   11  A    between atoms: C6_26  and  N6_27 
ROOT
ATOM      1  C15 TAT d          37.542  40.721 146.972  0.00  0.00     0.180 C 
ATOM      2  O16 TAT d          36.696  39.885 147.857  0.00  0.00    -0.353 OA
ATOM      3  C17 TAT d          36.617  41.157 145.839  0.00  0.00     0.182 C 
ATOM      4  C19 TAT d          35.758  39.983 145.672  0.00  0.00     0.198 C 
ATOM      5  C21 TAT d          35.511  39.485 147.097  0.00  0.00     0.262 C 
ENDROOT
BRANCH   1   6
ATOM      6  C14 TAT d          38.032  41.888 147.777  0.00  0.00     0.214 C 
BRANCH   6   7
ATOM      7  O13 TAT d          36.910  42.654 148.290  0.00  0.00    -0.300 OA
BRANCH   7   8
ATOM      8  PA  TAT d          36.735  44.140 147.865  0.00  0.00     0.431 P 
ATOM      9  S1A TAT d          35.326  45.022 148.959  0.00  0.00     0.009 SA
ATOM     10  O2A TAT d          36.422  44.234 146.354  0.00  0.00    -0.240 OA
BRANCH   8  11
ATOM     11  O3A TAT d          38.104  44.825 148.223  0.00  0.00    -0.194 OA
BRANCH  11  12
ATOM     12  PB  TAT d          39.114  45.485 147.178  0.00  0.00     0.426 P 
ATOM     13  O1B TAT d          38.419  46.379 146.166  0.00  0.00    -0.624 OA
ATOM     14  O2B TAT d          39.946  44.405 146.451  0.00  0.00    -0.624 OA
BRANCH  12  15
ATOM     15  O3B TAT d          40.071  46.335 148.105  0.00  0.00    -0.173 OA
BRANCH  15  16
ATOM     16  PG  TAT d          40.519  47.832 147.949  0.00  0.00     0.431 P 
ATOM     17  O1G TAT d          41.664  47.827 146.975  0.00  0.00    -0.616 OA
ATOM     18  O2G TAT d          39.396  48.720 147.492  0.00  0.00    -0.616 OA
ATOM     19  O3G TAT d          41.035  48.291 149.289  0.00  0.00    -0.616 OA
ENDBRANCH  15  16
ENDBRANCH  12  15
ENDBRANCH  11  12
ENDBRANCH   8  11
ENDBRANCH   7   8
ENDBRANCH   6   7
ENDBRANCH   1   6
BRANCH   3  20
ATOM     20  O18 TAT d          37.339  41.499 144.649  0.00  0.00    -0.390 OA
ATOM     21  H5  TAT d          37.834  40.744 144.352  0.00  0.00     0.210 HD
ENDBRANCH   3  20
BRANCH   5  22
ATOM     22  N9  TAT d          34.276  40.111 147.701  0.00  0.00    -0.294 N 
ATOM     23  C8  TAT d          34.180  40.964 148.748  0.00  0.00     0.214 A 
ATOM     24  N7  TAT d          32.907  41.329 149.044  0.00  0.00    -0.236 NA
ATOM     25  C5  TAT d          32.185  40.678 148.144  0.00  0.00     0.149 A 
ATOM     26  C6  TAT d          30.797  40.624 147.919  0.00  0.00     0.155 A 
ATOM     27  C4  TAT d          32.998  39.898 147.274  0.00  0.00     0.167 A 
ATOM     28  N1  TAT d          30.329  39.827 146.852  0.00  0.00    -0.222 NA
ATOM     29  C2  TAT d          31.269  39.120 146.078  0.00  0.00     0.237 A 
ATOM     30  N3  TAT d          32.591  39.099 146.224  0.00  0.00    -0.222 NA
BRANCH  26  31
ATOM     31  N6  TAT d          29.917  41.286 148.660  0.00  0.00    -0.382 N 
ATOM     32  H10 TAT d          28.911  41.212 148.453  0.00  0.00     0.157 HD
ATOM     33  H11 TAT d          30.240  41.873 149.442  0.00  0.00     0.157 HD
ENDBRANCH  26  31
ENDBRANCH   5  22
BRANCH   4  34
ATOM     34  O20 TAT d          36.448  39.020 144.870  0.00  0.00    -0.388 OA
ATOM     35  H7  TAT d          36.645  39.399 144.022  0.00  0.00     0.210 HD
ENDBRANCH   4  34
TORSDOF 11
