### 
### Created by X-TOOL on Sun Nov 13 14:27:38 2016
### 

@<TRIPOS>MOLECULE
5efa_ligand
   49    51     1     0     0
SMALL
GAST_HUCK


@<TRIPOS>ATOM
      1 PG         32.7850   28.3110   22.1440 P.3       1 MGT         0.1879
      2 O1G        32.3460   29.3030   21.0910 O.co2     1 MGT        -0.6091
      3 O2G        33.6760   28.9150   23.2030 O.co2     1 MGT        -0.6091
      4 O3G        33.2670   26.9860   21.5990 O.co2     1 MGT        -0.6091
      5 O3B        31.4010   27.9200   22.8800 O.3       1 MGT        -0.1546
      6 PB         31.2070   27.9630   24.4780 P.3       1 MGT         0.3553
      7 O1B        32.5000   27.6570   25.2120 O.co2     1 MGT        -0.5652
      8 O2B        29.9360   27.2160   24.7930 O.co2     1 MGT        -0.5652
      9 O3A        30.9410   29.5330   24.6380 O.3       1 MGT        -0.1171
     10 PA         30.2100   30.1820   25.9060 P.3       1 MGT         0.3266
     11 O1A        30.8300   29.6660   27.1830 O.co2     1 MGT        -0.5692
     12 O2A        28.7230   30.0940   25.6360 O.co2     1 MGT        -0.5692
     13 O5'        30.6700   31.7080   25.7170 O.3       1 MGT        -0.2441
     14 C5'        29.7870   32.6270   25.0800 C.3       1 MGT         0.1130
     15 C4'        30.4590   33.2500   23.8570 C.3       1 MGT         0.1169
     16 O4'        31.5640   34.0700   24.2490 O.3       1 MGT        -0.3529
     17 C3'        31.0560   32.1970   22.9440 C.3       1 MGT         0.1129
     18 O3'        31.0120   32.7920   21.6460 O.3       1 MGT        -0.3865
     19 C2'        32.5050   32.0640   23.3690 C.3       1 MGT         0.1208
     20 O2'        33.3300   31.7450   22.2500 O.3       1 MGT        -0.3857
     21 C1'        32.7870   33.4930   23.7770 C.3       1 MGT         0.1656
     22 N9         33.7970   33.7880   24.8140 N.2       1 MGT        -0.1577
     23 C8         33.5090   33.3330   26.1880 C.2       1 MGT         0.2318
     24 N7         34.7150   33.9250   26.7720 N.pl3     1 MGT        -0.0547
     25 CM7        34.8640   33.7130   28.2480 C.3       1 MGT         0.0996
     26 C5         35.5060   34.5860   25.9180 C.2       1 MGT         0.4523
     27 C6         36.7730   35.3120   26.0540 C.2       1 MGT         0.4098
     28 O6         37.3670   35.4370   27.1400 O.2       1 MGT        -0.2762
     29 N1         37.2550   35.8510   24.9290 N.am      1 MGT        -0.2152
     30 C2         36.6500   35.7530   23.7280 C.cat     1 MGT         0.2333
     31 N2         37.2440   36.3370   22.6550 N.pl3     1 MGT        -0.3251
     32 N3         35.4850   35.0920   23.5420 N.pl3     1 MGT        -0.1473
     33 C4         34.8860   34.5070   24.5940 C.2       1 MGT         0.4104
     34 H1         29.5176   33.4226   25.7902 H         1 MGT         0.0648
     35 H2         28.8778   32.0955   24.7626 H         1 MGT         0.0648
     36 H3         29.7166   33.8479   23.3080 H         1 MGT         0.0650
     37 H4         30.5212   31.2366   22.9846 H         1 MGT         0.0647
     38 H5         31.3733   32.1868   21.0090 H         1 MGT         0.2100
     39 H6         32.6463   31.3412   24.1860 H         1 MGT         0.0655
     40 H7         33.2616   32.4350   21.6006 H         1 MGT         0.2100
     41 H8         33.1072   34.0174   22.8646 H         1 MGT         0.0758
     42 H9         32.6888   32.7592   26.6168 H         1 MGT         0.2243
     43 H10        34.0176   33.1171   28.6201 H         1 MGT         0.0658
     44 H11        34.8791   34.6871   28.7587 H         1 MGT         0.0658
     45 H12        35.8046   33.1791   28.4487 H         1 MGT         0.0658
     46 H13        38.1158   36.3571   24.9817 H         1 MGT         0.1858
     47 H14        36.8029   36.2770   21.7262 H         1 MGT         0.1812
     48 H15        38.1355   36.8398   22.7702 H         1 MGT         0.1812
     49 H16        35.0612   35.0373   22.6048 H         1 MGT         0.2869
@<TRIPOS>BOND
     1    1    2 ar 
     2    1    3 ar 
     3    1    4 ar 
     4    1    5 1  
     5    5    6 1  
     6    6    7 ar 
     7    6    8 ar 
     8    6    9 1  
     9    9   10 1  
    10   10   11 ar 
    11   10   12 ar 
    12   10   13 1  
    13   13   14 1  
    14   14   15 1  
    15   15   16 1  
    16   15   17 1  
    17   16   21 1  
    18   17   18 1  
    19   17   19 1  
    20   19   20 1  
    21   19   21 1  
    22   21   22 1  
    23   22   23 2  
    24   22   33 1  
    25   23   24 1  
    26   24   25 1  
    27   24   26 1  
    28   26   27 1  
    29   26   33 2  
    30   27   28 2  
    31   27   29 am 
    32   29   30 ar 
    33   30   31 ar 
    34   30   32 ar 
    35   32   33 1  
    36   14   34 1  
    37   14   35 1  
    38   15   36 1  
    39   17   37 1  
    40   18   38 1  
    41   19   39 1  
    42   20   40 1  
    43   21   41 1  
    44   23   42 1  
    45   25   43 1  
    46   25   44 1  
    47   25   45 1  
    48   29   46 1  
    49   31   47 1  
    50   31   48 1  
    51   32   49 1  
@<TRIPOS>SUBSTRUCTURE
     1 MGT         1

