REMARK  5 active torsions:
REMARK  status: ('A' for Active; 'I' for Inactive)
REMARK    1  A    between atoms: N_1  and  CA_2 
REMARK    2  A    between atoms: CA_2  and  C_3 
REMARK    3  A    between atoms: CA_2  and  CB_5 
REMARK    4  A    between atoms: CB_5  and  CG_6 
REMARK    5  A    between atoms: CG_6  and  CD_7 
REMARK       I    between atoms: CD_7  and  NE2_9 
ROOT
ATOM      1  CA  GLN d          25.270   7.852  33.541  0.00  0.00     0.283 C 
ENDROOT
BRANCH   1   2
ATOM      2  N   GLN d          25.102   8.269  32.123  0.00  0.00    -0.065 N 
ATOM      3  H1  GLN d          24.222   7.924  31.773  0.00  0.00     0.275 HD
ATOM      4  H2  GLN d          25.855   7.890  31.570  0.00  0.00     0.275 HD
ATOM      5  H3  GLN d          25.116   9.275  32.065  0.00  0.00     0.275 HD
ENDBRANCH   1   2
BRANCH   1   6
ATOM      6  C   GLN d          26.591   8.358  34.097  0.00  0.00     0.204 C 
ATOM      7  O   GLN d          27.450   8.813  33.310  0.00  0.00    -0.646 OA
ATOM      8  OXT GLN d          26.750   8.297  35.334  0.00  0.00    -0.646 OA
ENDBRANCH   1   6
BRANCH   1   9
ATOM      9  CB  GLN d          25.163   6.329  33.685  0.00  0.00     0.053 C 
BRANCH   9  10
ATOM     10  CG  GLN d          26.305   5.547  33.049  0.00  0.00     0.105 C 
BRANCH  10  11
ATOM     11  CD  GLN d          26.182   4.052  33.263  0.00  0.00     0.215 C 
ATOM     12  OE1 GLN d          25.490   3.586  34.177  0.00  0.00    -0.274 OA
ATOM     13  NE2 GLN d          26.891   3.291  32.442  0.00  0.00    -0.370 N 
ATOM     14  H9  GLN d          26.856   2.295  32.528  0.00  0.00     0.159 HD
ATOM     15  H10 GLN d          27.461   3.712  31.737  0.00  0.00     0.159 HD
ENDBRANCH  10  11
ENDBRANCH   9  10
ENDBRANCH   1   9
TORSDOF 5
