### 
### Created by X-TOOL on Fri Sep 26 17:34:41 2014
### 

@<TRIPOS>MOLECULE
2qtn_ligand
   35    36     1     0     0
SMALL
GAST_HUCK


@<TRIPOS>ATOM
      1 P          16.9100  -29.6430   20.3250 P.3       1 NCN         0.2008
      2 O1P        16.5250  -31.0700   20.6200 O.co2     1 NCN        -0.5537
      3 O2P        15.8220  -28.6510   20.9580 O.co2     1 NCN        -0.5537
      4 O3P        18.3560  -29.2880   20.9450 O.co2     1 NCN        -0.5537
      5 O5'        16.9390  -29.4400   18.7320 O.3       1 NCN        -0.2734
      6 C5'        17.3420  -28.2310   18.0920 C.3       1 NCN         0.1071
      7 C4'        16.1550  -27.2480   18.0250 C.3       1 NCN         0.1176
      8 O4'        14.9120  -27.9240   18.1010 O.3       1 NCN        -0.3422
      9 C3'        16.0840  -26.2500   19.2120 C.3       1 NCN         0.1142
     10 O3'        16.9020  -25.1040   18.9870 O.3       1 NCN        -0.3864
     11 C2'        14.6180  -25.8180   19.1780 C.3       1 NCN         0.1320
     12 O2'        14.4670  -24.5920   18.4240 O.3       1 NCN        -0.3843
     13 C1'        13.8980  -26.9610   18.4140 C.3       1 NCN         0.1754
     14 N1         12.7920  -27.5200   19.2130 N.pl3     1 NCN        -0.2688
     15 C6         12.8600  -28.8000   19.7410 C.2       1 NCN         0.0147
     16 C5         11.7790  -29.3170   20.4910 C.2       1 NCN        -0.0693
     17 C4         10.6280  -28.5080   20.6890 C.2       1 NCN        -0.0861
     18 C3         10.5760  -27.1930   20.1400 C.2       1 NCN        -0.0099
     19 C2         11.6830  -26.7370   19.4070 C.3       1 NCN         0.0616
     20 C7          9.3650  -26.2980   20.3260 C.2       1 NCN         0.0474
     21 O7          8.3140  -26.7370   21.0100 O.co2     1 NCN        -0.5675
     22 O8          9.3610  -25.1900   19.8370 O.co2     1 NCN        -0.5675
     23 H1         17.6863  -28.4562   17.0719 H         1 NCN         0.0639
     24 H2         18.1627  -27.7726   18.6632 H         1 NCN         0.0639
     25 H3         16.2276  -26.6921   17.0786 H         1 NCN         0.0650
     26 H4         16.3546  -26.7317   20.1632 H         1 NCN         0.0648
     27 H5         16.6094  -24.6567   18.2016 H         1 NCN         0.2100
     28 H6         14.2160  -25.6942   20.1944 H         1 NCN         0.0669
     29 H7         14.9818  -23.9055   18.8316 H         1 NCN         0.2101
     30 H8         13.4760  -26.5671   17.4777 H         1 NCN         0.0912
     31 H9         13.7482  -29.4086   19.5776 H         1 NCN         0.1022
     32 H10        11.8278  -30.3206   20.9108 H         1 NCN         0.0289
     33 H11         9.7846  -28.8926   21.2606 H         1 NCN         0.0459
     34 H12        11.3064  -26.4808   18.4057 H         1 NCN         0.0665
     35 H13        12.0332  -25.8245   19.9116 H         1 NCN         0.0665
@<TRIPOS>BOND
     1    1    2 ar 
     2    1    3 ar 
     3    1    4 ar 
     4    1    5 1  
     5    5    6 1  
     6    6    7 1  
     7    7    8 1  
     8    7    9 1  
     9    8   13 1  
    10    9   10 1  
    11    9   11 1  
    12   11   12 1  
    13   11   13 1  
    14   13   14 1  
    15   14   15 1  
    16   14   19 1  
    17   15   16 2  
    18   16   17 1  
    19   17   18 2  
    20   18   19 1  
    21   18   20 1  
    22   20   21 ar 
    23   20   22 ar 
    24    6   23 1  
    25    6   24 1  
    26    7   25 1  
    27    9   26 1  
    28   10   27 1  
    29   11   28 1  
    30   12   29 1  
    31   13   30 1  
    32   15   31 1  
    33   16   32 1  
    34   17   33 1  
    35   19   34 1  
    36   19   35 1  
@<TRIPOS>SUBSTRUCTURE
     1 NCN         1

