### 
### Created by X-TOOL on Fri Sep 26 17:34:12 2014
### 

@<TRIPOS>MOLECULE
1pdz_ligand
   11    10     1     0     0
SMALL
GAST_HUCK


@<TRIPOS>ATOM
      1 P          31.8840   69.4060   13.7090 P.3       1 PGA         0.2032
      2 O1P        31.1470   70.2090   12.5440 O.3       1 PGA        -0.2622
      3 O2P        31.1700   69.8960   14.8920 O.co2     1 PGA        -0.5536
      4 O3P        31.6660   67.9750   13.3100 O.co2     1 PGA        -0.5536
      5 O4P        33.2970   69.8230   13.6570 O.co2     1 PGA        -0.5536
      6 C2         29.7460   70.1730   12.5240 C.3       1 PGA         0.1305
      7 C1         29.2060   70.4510   11.1440 C.2       1 PGA         0.0653
      8 O1         29.8860   70.0780   10.1620 O.co2     1 PGA        -0.5663
      9 O2         28.0760   70.9870   11.0390 O.co2     1 PGA        -0.5663
     10 H1         29.3589   70.9327   13.2190 H         1 PGA         0.0783
     11 H2         29.4094   69.1764   12.8455 H         1 PGA         0.0783
@<TRIPOS>BOND
     1    1    2 1  
     2    1    3 ar 
     3    1    4 ar 
     4    1    5 ar 
     5    2    6 1  
     6    6    7 1  
     7    7    8 ar 
     8    7    9 ar 
     9    6   10 1  
    10    6   11 1  
@<TRIPOS>SUBSTRUCTURE
     1 PGA         1

