### 
### Created by X-TOOL on Fri Sep 26 17:34:46 2014
### 

@<TRIPOS>MOLECULE
3n9s_ligand
   30    29     1     0     0
SMALL
GAST_HUCK


@<TRIPOS>ATOM
      1 O01        -7.6710   24.0270  -22.0060 O.3       1 TD4        -0.2690
      2 N02        -7.1370   24.6770  -23.1250 N.am      1 TD4        -0.1485
      3 C03        -7.9720   24.7640  -24.2950 C.3       1 TD4         0.0630
      4 C04        -9.0510   25.8260  -24.1720 C.3       1 TD4        -0.0275
      5 C05       -10.4790   25.3260  -24.1790 C.3       1 TD4        -0.0231
      6 C06       -11.5430   26.3810  -24.4240 C.3       1 TD4         0.0785
      7 O07       -12.3390   26.1670  -25.5430 O.3       1 TD4        -0.2761
      8 P08       -13.9470   26.4420  -25.4200 P.3       1 TD4         0.2007
      9 O09       -14.7120   25.4520  -26.4710 O.co2     1 TD4        -0.5537
     10 O10       -14.4280   26.1190  -23.8890 O.co2     1 TD4        -0.5537
     11 O11       -14.2180   27.8400  -25.7220 O.co2     1 TD4        -0.5537
     12 C12        -6.0840   25.6510  -22.9610 C.2       1 TD4         0.2322
     13 O13        -5.4490   25.6780  -21.9480 O.2       1 TD4        -0.3938
     14 C14        -5.6390   26.4360  -24.1980 C.3       1 TD4         0.1688
     15 O15        -4.7740   27.5020  -23.9520 O.3       1 TD4        -0.2560
     16 P16        -4.5660   28.7170  -25.0510 P.3       1 TD4         0.2041
     17 O17        -3.1920   29.4910  -24.6150 O.co2     1 TD4        -0.5536
     18 O18        -5.8480   29.7340  -25.0370 O.co2     1 TD4        -0.5536
     19 O19        -4.3660   28.1500  -26.3760 O.co2     1 TD4        -0.5536
     20 H1         -7.0322   24.0330  -21.3029 H         1 TD4         0.2493
     21 H2         -8.4555   23.7890  -24.4547 H         1 TD4         0.0551
     22 H3         -7.3387   25.0055  -25.1613 H         1 TD4         0.0551
     23 H4         -8.9346   26.5230  -25.0150 H         1 TD4         0.0286
     24 H5         -8.8876   26.3636  -23.2264 H         1 TD4         0.0286
     25 H6        -10.6802   24.8633  -23.2016 H         1 TD4         0.0291
     26 H7        -10.5676   24.5663  -24.9696 H         1 TD4         0.0291
     27 H8        -11.0393   27.3514  -24.5448 H         1 TD4         0.0612
     28 H9        -12.1984   26.4154  -23.5412 H         1 TD4         0.0612
     29 H10        -6.5391   26.8358  -24.6879 H         1 TD4         0.0857
     30 H11        -5.1308   25.7370  -24.8786 H         1 TD4         0.0857
@<TRIPOS>BOND
     1    1    2 1  
     2    2    3 1  
     3    2   12 am 
     4    3    4 1  
     5    4    5 1  
     6    5    6 1  
     7    6    7 1  
     8    7    8 1  
     9    8    9 ar 
    10    8   10 ar 
    11    8   11 ar 
    12   12   13 2  
    13   12   14 1  
    14   14   15 1  
    15   15   16 1  
    16   16   17 ar 
    17   16   18 ar 
    18   16   19 ar 
    19    1   20 1  
    20    3   21 1  
    21    3   22 1  
    22    4   23 1  
    23    4   24 1  
    24    5   25 1  
    25    5   26 1  
    26    6   27 1  
    27    6   28 1  
    28   14   29 1  
    29   14   30 1  
@<TRIPOS>SUBSTRUCTURE
     1 TD4         1

