REMARK  15 active torsions:
REMARK  status: ('A' for Active; 'I' for Inactive)
REMARK    1  A    between atoms: C2_1  and  O39_38 
REMARK    2  A    between atoms: S8_7  and  C5_4 
REMARK    3  A    between atoms: N11_10  and  S8_7 
REMARK    4  A    between atoms: N11_10  and  C12_11 
REMARK    5  A    between atoms: C16_15  and  N11_10 
REMARK    6  A    between atoms: C12_11  and  C13_12 
REMARK    7  A    between atoms: C17_16  and  C16_15 
REMARK    8  A    between atoms: C17_16  and  O18_17 
REMARK    9  A    between atoms: C19_18  and  C17_16 
REMARK   10  A    between atoms: C19_18  and  N20_19 
REMARK   11  A    between atoms: C32_31  and  C19_18 
REMARK       I    between atoms: N20_19  and  C21_20 
REMARK   12  A    between atoms: C21_20  and  O23_22 
REMARK   13  A    between atoms: O23_22  and  C24_23 
REMARK   14  A    between atoms: C30_29  and  O41_40 
REMARK   15  A    between atoms: C38_37  and  C32_31 
ROOT
ATOM      1  C19 G04 d          14.874  22.929  16.903  0.00  0.00     0.121 C 
ENDROOT
BRANCH   1   2
ATOM      2  C17 G04 d          15.264  24.046  17.872  0.00  0.00     0.160 C 
BRANCH   2   3
ATOM      3  C16 G04 d          16.396  24.927  17.345  0.00  0.00     0.169 C 
BRANCH   3   4
ATOM      4  N11 G04 d          17.662  24.199  17.323  0.00  0.00    -0.304 N 
BRANCH   4   5
ATOM      5  S8  G04 d          18.405  23.975  15.877  0.00  0.00     0.260 S 
ATOM      6  O9  G04 d          17.354  23.831  14.832  0.00  0.00    -0.200 OA
ATOM      7  O10 G04 d          19.304  22.781  15.968  0.00  0.00    -0.200 OA
BRANCH   5   8
ATOM      8  C5  G04 d          19.372  25.381  15.448  0.00  0.00     0.079 C 
ATOM      9  C4  G04 d          18.832  26.428  14.708  0.00  0.00     0.028 C 
ATOM     10  C3  G04 d          19.594  27.562  14.444  0.00  0.00     0.038 C 
ATOM     11  C2  G04 d          20.942  27.615  14.779  0.00  0.00     0.068 C 
ATOM     12  C7  G04 d          21.525  26.536  15.443  0.00  0.00     0.038 C 
ATOM     13  C6  G04 d          20.716  25.451  15.757  0.00  0.00     0.028 C 
BRANCH  11  14
ATOM     14  O39 G04 d          21.705  28.733  14.545  0.00  0.00    -0.356 OA
ATOM     15  C40 G04 d          23.072  28.373  14.796  0.00  0.00     0.210 C 
ENDBRANCH  11  14
ENDBRANCH   5   8
ENDBRANCH   4   5
BRANCH   4  16
ATOM     16  C12 G04 d          18.544  24.578  18.409  0.00  0.00     0.139 C 
BRANCH  16  17
ATOM     17  C13 G04 d          18.342  23.783  19.702  0.00  0.00    -0.004 C 
ATOM     18  C14 G04 d          18.166  22.287  19.484  0.00  0.00     0.011 C 
ATOM     19  C15 G04 d          19.543  24.031  20.629  0.00  0.00     0.011 C 
ENDBRANCH  16  17
ENDBRANCH   4  16
ENDBRANCH   3   4
ENDBRANCH   2   3
BRANCH   2  20
ATOM     20  O18 G04 d          14.104  24.793  18.251  0.00  0.00    -0.392 OA
ATOM     21  H17 G04 d          13.436  24.198  18.570  0.00  0.00     0.210 HD
ENDBRANCH   2  20
ENDBRANCH   1   2
BRANCH   1  22
ATOM     22  N20 G04 d          13.944  22.023  17.585  0.00  0.00    -0.329 N 
ATOM     23  C21 G04 d          14.204  20.751  17.919  0.00  0.00     0.361 C 
ATOM     24  O22 G04 d          15.300  20.222  17.681  0.00  0.00    -0.238 OA
ATOM     25  H19 G04 d          13.041  22.384  17.820  0.00  0.00     0.165 HD
BRANCH  23  26
ATOM     26  O23 G04 d          13.176  20.092  18.526  0.00  0.00    -0.296 OA
BRANCH  26  27
ATOM     27  C24 G04 d          13.381  18.710  18.820  0.00  0.00     0.169 C 
ATOM     28  C25 G04 d          12.923  18.477  20.263  0.00  0.00     0.204 C 
ATOM     29  O26 G04 d          11.492  18.480  20.191  0.00  0.00    -0.358 OA
ATOM     30  C27 G04 d          11.077  18.047  18.907  0.00  0.00     0.268 C 
ATOM     31  O28 G04 d          10.263  19.037  18.270  0.00  0.00    -0.358 OA
ATOM     32  C31 G04 d          12.336  17.859  18.081  0.00  0.00     0.104 C 
ATOM     33  C29 G04 d          10.858  19.453  17.053  0.00  0.00     0.203 C 
ATOM     34  C30 G04 d          11.925  18.417  16.710  0.00  0.00     0.156 C 
BRANCH  34  35
ATOM     35  O41 G04 d          11.299  17.294  16.048  0.00  0.00    -0.388 OA
ATOM     36  C42 G04 d          11.318  17.463  14.635  0.00  0.00     0.202 C 
ENDBRANCH  34  35
ENDBRANCH  26  27
ENDBRANCH  23  26
ENDBRANCH   1  22
BRANCH   1  37
ATOM     37  C32 G04 d          14.179  23.469  15.638  0.00  0.00     0.066 C 
BRANCH  37  38
ATOM     38  C38 G04 d          13.772  22.304  14.716  0.00  0.00    -0.056 A 
ATOM     39  C33 G04 d          12.440  21.908  14.626  0.00  0.00     0.007 A 
ATOM     40  C34 G04 d          12.056  20.815  13.853  0.00  0.00     0.001 A 
ATOM     41  C35 G04 d          12.992  20.110  13.090  0.00  0.00     0.000 A 
ATOM     42  C36 G04 d          14.325  20.532  13.161  0.00  0.00     0.001 A 
ATOM     43  C37 G04 d          14.717  21.607  13.963  0.00  0.00     0.007 A 
ENDBRANCH  37  38
ENDBRANCH   1  37
TORSDOF 15
