### 
### Created by X-TOOL on Fri Sep 26 17:34:38 2014
### 

@<TRIPOS>MOLECULE
2oi2_ligand
   28    27     1     0     0
SMALL
GAST_HUCK


@<TRIPOS>ATOM
      1 C3A        23.8130   24.3380   48.1870 C.3       1 DP6        -0.0344
      2 O1A        28.9100   25.3620   44.8130 O.co2     1 DP6        -0.5556
      3 O2A        30.5640   24.6070   46.5870 O.co2     1 DP6        -0.5556
      4 O3A        24.0170   26.6940   48.6580 O.3       1 DP6        -0.3871
      5 O1B        30.0680   23.1690   43.3480 O.co2     1 DP6        -0.5891
      6 O2B        28.4440   21.2480   43.8330 O.co2     1 DP6        -0.5891
      7 O3B        30.7460   21.2920   44.9820 O.co2     1 DP6        -0.5891
      8 PB         29.5870   22.2300   44.3830 P.3       1 DP6         0.2069
      9 O6         28.9170   22.9730   45.6440 O.3       1 DP6        -0.1548
     10 PA         29.2060   24.5170   45.9900 P.3       1 DP6         0.3275
     11 O5         28.1140   24.7690   47.1410 O.3       1 DP6        -0.2462
     12 C5         26.7190   24.8400   46.8300 C.3       1 DP6         0.0871
     13 C4         25.9960   25.5110   48.0010 C.3       1 DP6         0.0060
     14 C3         24.4870   25.6550   47.7970 C.3       1 DP6         0.0770
     15 C2         24.1650   26.0030   46.3370 C.3       1 DP6         0.0289
     16 C1         24.5670   27.4180   45.8990 C.2       1 DP6         0.0375
     17 O1         25.0580   27.6210   44.7910 O.co2     1 DP6        -0.5689
     18 O2         24.3840   28.3740   46.6430 O.co2     1 DP6        -0.5689
     19 H1         24.1708   23.5336   47.5275 H         1 DP6         0.0258
     20 H2         22.7226   24.4393   48.0833 H         1 DP6         0.0258
     21 H3         24.0610   24.0941   49.2305 H         1 DP6         0.0258
     22 H4         24.4331   27.5140   48.4193 H         1 DP6         0.2103
     23 H5         26.3200   23.8261   46.6790 H         1 DP6         0.0622
     24 H6         26.5722   25.4319   45.9146 H         1 DP6         0.0622
     25 H7         26.4236   26.5145   48.1429 H         1 DP6         0.0320
     26 H8         26.1673   24.9082   48.9050 H         1 DP6         0.0320
     27 H9         23.0795   25.8978   46.1934 H         1 DP6         0.0458
     28 H10        24.6916   25.2845   45.6917 H         1 DP6         0.0458
@<TRIPOS>BOND
     1   14    1 1  
     2   10    2 ar 
     3   10    3 ar 
     4   14    4 1  
     5    8    5 ar 
     6    8    6 ar 
     7    8    7 ar 
     8    9    8 1  
     9   10    9 1  
    10   11   10 1  
    11   12   11 1  
    12   13   12 1  
    13   13   14 1  
    14   14   15 1  
    15   15   16 1  
    16   16   17 ar 
    17   16   18 ar 
    18    1   19 1  
    19    1   20 1  
    20    1   21 1  
    21    4   22 1  
    22   12   23 1  
    23   12   24 1  
    24   13   25 1  
    25   13   26 1  
    26   15   27 1  
    27   15   28 1  
@<TRIPOS>SUBSTRUCTURE
     1 DP6         1

