### 
### Created by X-TOOL on Fri Sep 26 17:34:12 2014
### 

@<TRIPOS>MOLECULE
1tsy_ligand
   31    32     1     0     0
SMALL
GAST_HUCK


@<TRIPOS>ATOM
      1 N1         14.4320   48.8460  -53.9840 N.am      1 UMP        -0.1618
      2 C2         13.6810   47.7990  -53.4490 C.2       1 UMP         0.3327
      3 N3         12.9580   48.0870  -52.3080 N.am      1 UMP        -0.1865
      4 C4         12.9180   49.3370  -51.6860 C.2       1 UMP         0.1822
      5 C5         13.7170   50.3590  -52.3230 C.2       1 UMP         0.0062
      6 C6         14.4450   50.0460  -53.4640 C.2       1 UMP         0.0590
      7 O2         13.5510   46.6740  -53.9080 O.2       1 UMP        -0.3815
      8 O4         12.2290   49.5410  -50.6860 O.2       1 UMP        -0.4124
      9 C1         15.4310   48.7120  -55.0260 C.3       1 UMP         0.1800
     10 C2         14.9880   48.4110  -56.4520 C.3       1 UMP         0.0316
     11 C3         16.2850   48.6140  -57.2230 C.3       1 UMP         0.0890
     12 C4         16.8830   49.9300  -56.7110 C.3       1 UMP         0.1156
     13 O3         17.1560   47.5630  -56.7960 O.3       1 UMP        -0.3890
     14 O4         16.3330   49.8850  -55.3080 O.3       1 UMP        -0.3387
     15 C5         16.3040   51.1290  -57.4720 C.3       1 UMP         0.1071
     16 O5         16.8970   51.2580  -58.8460 O.3       1 UMP        -0.2734
     17 P          15.9310   51.7260  -59.9750 P.3       1 UMP         0.2008
     18 O1P        15.2600   53.0010  -59.6920 O.co2     1 UMP        -0.5537
     19 O2P        16.4480   51.8180  -61.3870 O.co2     1 UMP        -0.5537
     20 O3P        14.9570   50.6300  -59.8960 O.co2     1 UMP        -0.5537
     21 H1         12.4247   47.3473  -51.8976 H         1 UMP         0.2259
     22 H2         13.7481   51.3668  -51.9117 H         1 UMP         0.0258
     23 H3         15.0436   50.8219  -53.9390 H         1 UMP         0.1178
     24 H4         16.0596   47.8753  -54.6873 H         1 UMP         0.0970
     25 H5         14.2081   49.1109  -56.7866 H         1 UMP         0.0345
     26 H6         14.6205   47.3788  -56.5490 H         1 UMP         0.0345
     27 H7         16.1342   48.6185  -58.3126 H         1 UMP         0.0622
     28 H8         17.9824   49.9444  -56.7443 H         1 UMP         0.0649
     29 H9         17.2076   47.5617  -55.8474 H         1 UMP         0.2099
     30 H10        16.5171   52.0471  -56.9048 H         1 UMP         0.0639
     31 H11        15.2156   50.9997  -57.5649 H         1 UMP         0.0639
@<TRIPOS>BOND
     1    1    2 am 
     2    1    6 1  
     3    1    9 1  
     4    2    3 am 
     5    2    7 2  
     6    3    4 am 
     7    4    5 1  
     8    4    8 2  
     9    5    6 2  
    10    9   10 1  
    11    9   14 1  
    12   10   11 1  
    13   11   12 1  
    14   11   13 1  
    15   12   14 1  
    16   12   15 1  
    17   15   16 1  
    18   16   17 1  
    19   17   18 ar 
    20   17   19 ar 
    21   17   20 ar 
    22    3   21 1  
    23    5   22 1  
    24    6   23 1  
    25    9   24 1  
    26   10   25 1  
    27   10   26 1  
    28   11   27 1  
    29   12   28 1  
    30   13   29 1  
    31   15   30 1  
    32   15   31 1  
@<TRIPOS>SUBSTRUCTURE
     1 UMP         1

