### 
### Created by X-TOOL on Fri Sep 26 17:34:22 2014
### 

@<TRIPOS>MOLECULE
1olx_ligand
   42    43     1     0     0
SMALL
GAST_HUCK


@<TRIPOS>ATOM
      1 N1         77.2010    0.5650   11.6500 N.ar      1 TDP        -0.2938
      2 C2         77.4630    1.7830   12.1580 C.ar      1 TDP         0.0758
      3 C2A        77.5550    1.8660   13.6830 C.3       1 TDP        -0.0029
      4 N3         77.6430    2.8940   11.3810 N.ar      1 TDP        -0.2610
      5 C4         77.5410    2.7130   10.0480 C.ar      1 TDP         0.1223
      6 N4         77.7330    3.8440    9.3150 N.pl3     1 TDP        -0.3187
      7 C5         77.2660    1.4320    9.4140 C.ar      1 TDP         0.0328
      8 C6         77.0990    0.3750   10.3200 C.ar      1 TDP         0.0074
      9 C35        77.1590    1.2490    7.8810 C.3       1 TDP         0.0562
     10 N3         75.9320    1.8660    7.3190 N.2       1 TDP        -0.2745
     11 C2         75.9500    3.1120    6.7310 C.2       1 TDP         0.1352
     12 S1         74.3290    3.5720    6.2000 S.3       1 TDP         0.1156
     13 C5         73.6800    2.0570    6.7790 C.2       1 TDP         0.1730
     14 C4         74.5830    1.2170    7.3540 C.2       1 TDP         0.1309
     15 C4A        74.3140   -0.1720    7.9600 C.3       1 TDP         0.0228
     16 C5A        72.1800    1.9210    6.5600 C.3       1 TDP         0.0829
     17 C5B        71.3880    2.7750    7.5860 C.3       1 TDP         0.1135
     18 O5G        69.9990    2.6740    7.2480 O.3       1 TDP        -0.2401
     19 P1         68.9720    3.7060    7.7490 P.3       1 TDP         0.3279
     20 O11        69.0130    4.9850    6.8360 O.3       1 TDP        -0.1548
     21 O12        69.2770    4.0940    9.1750 O.co2     1 TDP        -0.5556
     22 O13        67.6420    3.0380    7.6400 O.co2     1 TDP        -0.5556
     23 P2         68.7590    5.2370    5.2700 P.3       1 TDP         0.2069
     24 O21        68.2420    6.6700    5.2020 O.co2     1 TDP        -0.5891
     25 O22        70.1080    5.0990    4.6290 O.co2     1 TDP        -0.5891
     26 O23        67.7570    4.2830    4.7560 O.co2     1 TDP        -0.5891
     27 H1         77.3805    0.8698   14.1156 H         1 TDP         0.0449
     28 H2         76.7951    2.5670   14.0586 H         1 TDP         0.0449
     29 H3         78.5555    2.2207   13.9712 H         1 TDP         0.0449
     30 H4         77.6752    3.8076    8.2873 H         1 TDP         0.1789
     31 H5         77.9361    4.7361    9.7881 H         1 TDP         0.1789
     32 H6         76.8829   -0.6176    9.9418 H         1 TDP         0.0791
     33 H7         77.1482    0.1727    7.6542 H         1 TDP         0.0563
     34 H8         78.0362    1.7146    7.4081 H         1 TDP         0.0563
     35 H9         76.8400    3.7278    6.6103 H         1 TDP         0.1655
     36 H10        73.2460   -0.4154    7.8591 H         1 TDP         0.0599
     37 H11        74.5900   -0.1672    9.0248 H         1 TDP         0.0599
     38 H12        74.9136   -0.9261    7.4292 H         1 TDP         0.0599
     39 H13        71.8941    0.8650    6.6743 H         1 TDP         0.0773
     40 H14        71.9328    2.2598    5.5431 H         1 TDP         0.0773
     41 H15        71.7126    3.8246    7.5314 H         1 TDP         0.0687
     42 H16        71.5560    2.3916    8.6032 H         1 TDP         0.0687
@<TRIPOS>BOND
     1    1    2 ar 
     2    1    8 ar 
     3    2    3 1  
     4    2    4 ar 
     5    4    5 ar 
     6    5    6 1  
     7    5    7 ar 
     8    7    8 ar 
     9    7    9 1  
    10    9   10 1  
    11   10   11 2  
    12   10   14 1  
    13   11   12 1  
    14   12   13 1  
    15   13   14 2  
    16   13   16 1  
    17   14   15 1  
    18   16   17 1  
    19   17   18 1  
    20   18   19 1  
    21   19   20 1  
    22   19   21 ar 
    23   19   22 ar 
    24   20   23 1  
    25   23   24 ar 
    26   23   25 ar 
    27   23   26 ar 
    28    3   27 1  
    29    3   28 1  
    30    3   29 1  
    31    6   30 1  
    32    6   31 1  
    33    8   32 1  
    34    9   33 1  
    35    9   34 1  
    36   11   35 1  
    37   15   36 1  
    38   15   37 1  
    39   15   38 1  
    40   16   39 1  
    41   16   40 1  
    42   17   41 1  
    43   17   42 1  
@<TRIPOS>SUBSTRUCTURE
     1 TDP         1

