### 
### Created by X-TOOL on Fri Sep 26 17:34:50 2014
### 

@<TRIPOS>MOLECULE
3pfp_ligand
   30    29     1     0     0
SMALL
GAST_HUCK


@<TRIPOS>ATOM
      1 C1         11.4420   88.4610   -7.7320 C.2       1 MOL         0.0685
      2 C2         10.3360   88.2410   -8.7870 C.3       1 MOL         0.1410
      3 C3          9.4710   89.5010   -8.8770 C.3       1 MOL        -0.0101
      4 C4          8.4440   89.5110   -7.7370 C.3       1 MOL        -0.0488
      5 C5          7.1270   88.8450   -8.1630 C.3       1 MOL        -0.0505
      6 C6          6.1040   88.8870   -7.0320 C.3       1 MOL        -0.0250
      7 C7          4.8000   88.2150   -7.4950 C.3       1 MOL         0.0784
      8 O8         11.0950   88.5110   -6.5160 O.co2     1 MOL        -0.5661
      9 O9         12.6230   88.5130   -8.1810 O.co2     1 MOL        -0.5661
     10 O10        10.9980   87.9850  -10.0260 O.3       1 MOL        -0.2590
     11 O11         3.9330   88.0610   -6.3730 O.3       1 MOL        -0.2761
     12 P12        10.3130   87.6260  -11.4320 P.3       1 MOL         0.2036
     13 O13        11.1830   86.6790  -12.1910 O.co2     1 MOL        -0.5536
     14 O14         8.8350   87.0790  -11.2300 O.co2     1 MOL        -0.5536
     15 O15        10.1810   88.9920  -12.2150 O.co2     1 MOL        -0.5536
     16 P16         2.3560   87.7410   -6.6010 P.3       1 MOL         0.2007
     17 O17         2.1390   86.7470   -7.6680 O.co2     1 MOL        -0.5537
     18 O18         1.6280   89.1300   -6.9360 O.co2     1 MOL        -0.5537
     19 O19         1.7780   87.3120   -5.1800 O.co2     1 MOL        -0.5537
     20 H1          9.7073   87.3817   -8.5109 H         1 MOL         0.0819
     21 H2          8.9443   89.5138   -9.8426 H         1 MOL         0.0312
     22 H3         10.1129   90.3907   -8.7976 H         1 MOL         0.0312
     23 H4          8.2409   90.5526   -7.4474 H         1 MOL         0.0267
     24 H5          8.8590   88.9654   -6.8767 H         1 MOL         0.0267
     25 H6          7.3241   87.7966   -8.4313 H         1 MOL         0.0266
     26 H7          6.7205   89.3768   -9.0359 H         1 MOL         0.0266
     27 H8          5.9008   89.9333   -6.7600 H         1 MOL         0.0291
     28 H9          6.5020   88.3515   -6.1575 H         1 MOL         0.0291
     29 H10         5.0261   87.2279   -7.9245 H         1 MOL         0.0612
     30 H11         4.3115   88.8424   -8.2551 H         1 MOL         0.0612
@<TRIPOS>BOND
     1    1    2 1  
     2    1    8 ar 
     3    1    9 ar 
     4    2    3 1  
     5    2   10 1  
     6    3    4 1  
     7    4    5 1  
     8    5    6 1  
     9    6    7 1  
    10    7   11 1  
    11   10   12 1  
    12   11   16 1  
    13   12   13 ar 
    14   12   14 ar 
    15   12   15 ar 
    16   16   17 ar 
    17   16   18 ar 
    18   16   19 ar 
    19    2   20 1  
    20    3   21 1  
    21    3   22 1  
    22    4   23 1  
    23    4   24 1  
    24    5   25 1  
    25    5   26 1  
    26    6   27 1  
    27    6   28 1  
    28    7   29 1  
    29    7   30 1  
@<TRIPOS>SUBSTRUCTURE
     1 MOL         1

