### 
### Created by X-TOOL on Fri Sep 26 17:34:59 2014
### 

@<TRIPOS>MOLECULE
4jne_ligand
   43    45     1     0     0
SMALL
GAST_HUCK


@<TRIPOS>ATOM
      1 PG         13.0360   76.3780   28.1870 P.3       1 ATP         0.1879
      2 O1G        12.3240   76.8740   26.9370 O.co2     1 ATP        -0.6091
      3 O2G        12.8220   77.2350   29.4160 O.co2     1 ATP        -0.6091
      4 O3G        12.7900   74.9390   28.4730 O.co2     1 ATP        -0.6091
      5 PB         15.7640   75.6640   27.2730 P.3       1 ATP         0.3553
      6 O1B        15.3140   74.2370   27.1670 O.co2     1 ATP        -0.5652
      7 O2B        16.3450   76.3020   26.0400 O.co2     1 ATP        -0.5652
      8 O3B        14.6150   76.6190   27.9180 O.3       1 ATP        -0.1546
      9 PA         18.0500   74.8520   28.8250 P.3       1 ATP         0.3266
     10 O1A        18.9570   74.7950   27.6240 O.co2     1 ATP        -0.5692
     11 O2A        17.5370   73.6240   29.5060 O.co2     1 ATP        -0.5692
     12 O3A        16.8090   75.8270   28.4900 O.3       1 ATP        -0.1171
     13 O5'        18.7840   75.7520   29.9420 O.3       1 ATP        -0.2441
     14 C5'        19.2860   77.0370   29.5910 C.3       1 ATP         0.1131
     15 C4'        19.4310   77.8380   30.8860 C.3       1 ATP         0.1189
     16 O4'        20.2570   77.0930   31.7800 O.3       1 ATP        -0.3364
     17 C3'        20.1080   79.1910   30.6890 C.3       1 ATP         0.1149
     18 O3'        19.3970   80.1480   31.4870 O.3       1 ATP        -0.3864
     19 C2'        21.5080   78.9790   31.2330 C.3       1 ATP         0.1385
     20 O2'        22.1510   80.1510   31.7420 O.3       1 ATP        -0.3836
     21 C1'        21.2240   77.9790   32.3250 C.3       1 ATP         0.2010
     22 N9         22.4140   77.2010   32.6960 N.pl3     1 ATP        -0.1919
     23 C8         23.2050   76.4750   31.8840 C.2       1 ATP         0.1123
     24 N7         24.1990   75.8870   32.6020 N.2       1 ATP        -0.2958
     25 C5         24.0320   76.2460   33.8890 C.ar      1 ATP         0.1045
     26 C6         24.7320   75.9910   35.1580 C.ar      1 ATP         0.1298
     27 N6         25.8370   75.2010   35.1770 N.pl3     1 ATP        -0.3152
     28 N1         24.2280   76.5650   36.2790 N.ar      1 ATP        -0.2698
     29 C2         23.1310   77.3510   36.2540 C.ar      1 ATP         0.0533
     30 N3         22.4510   77.6370   35.1280 N.ar      1 ATP        -0.2714
     31 C4         22.8530   77.1170   33.9450 C.ar      1 ATP         0.1613
     32 H1         18.5838   77.5429   28.9121 H         1 ATP         0.0648
     33 H2         20.2645   76.9372   29.0986 H         1 ATP         0.0648
     34 H3         18.4342   77.9916   31.3250 H         1 ATP         0.0651
     35 H4         20.1263   79.4976   29.6328 H         1 ATP         0.0648
     36 H5         19.7970   81.0036   31.3846 H         1 ATP         0.2100
     37 H6         22.1559   78.5437   30.4580 H         1 ATP         0.0676
     38 H7         21.6356   80.5091   32.4553 H         1 ATP         0.2101
     39 H8         20.8293   78.4921   33.2144 H         1 ATP         0.0996
     40 H9         23.0687   76.3733   30.8084 H         1 ATP         0.1349
     41 H10        26.3271   75.0224   36.0651 H         1 ATP         0.1820
     42 H11        26.1847   74.7807   34.3033 H         1 ATP         0.1820
     43 H12        22.7796   77.7735   37.1884 H         1 ATP         0.0996
@<TRIPOS>BOND
     1    1    2 ar 
     2    1    3 ar 
     3    1    4 ar 
     4    8    1 1  
     5    5    6 ar 
     6    5    7 ar 
     7    5    8 1  
     8   12    5 1  
     9    9   10 ar 
    10    9   11 ar 
    11    9   12 1  
    12    9   13 1  
    13   13   14 1  
    14   14   15 1  
    15   15   16 1  
    16   15   17 1  
    17   16   21 1  
    18   17   18 1  
    19   17   19 1  
    20   19   20 1  
    21   19   21 1  
    22   21   22 1  
    23   22   23 1  
    24   22   31 1  
    25   23   24 2  
    26   24   25 1  
    27   25   26 ar 
    28   25   31 ar 
    29   26   27 1  
    30   26   28 ar 
    31   28   29 ar 
    32   29   30 ar 
    33   30   31 ar 
    34   14   32 1  
    35   14   33 1  
    36   15   34 1  
    37   17   35 1  
    38   18   36 1  
    39   19   37 1  
    40   20   38 1  
    41   21   39 1  
    42   23   40 1  
    43   27   41 1  
    44   27   42 1  
    45   29   43 1  
@<TRIPOS>SUBSTRUCTURE
     1 ATP         1

