### 
### Created by X-TOOL on Fri Sep 26 17:34:15 2014
### 

@<TRIPOS>MOLECULE
1bxr_ligand
   44    46     1     0     0
SMALL
GAST_HUCK


@<TRIPOS>ATOM
      1 PG         20.7420   29.4160   71.6650 P.3       1 ANP         0.1626
      2 O1G        21.5970   29.0350   70.4450 O.co2     1 ANP        -0.5485
      3 O2G        21.4680   30.4410   72.4470 O.co2     1 ANP        -0.5485
      4 O3G        20.5270   28.1650   72.6600 O.co2     1 ANP        -0.5485
      5 PB         17.9740   29.1110   70.7120 P.3       1 ANP         0.2597
      6 O1B        18.3140   28.3020   69.4830 O.co2     1 ANP        -0.6016
      7 O2B        17.4090   28.2610   71.8170 O.co2     1 ANP        -0.6016
      8 N3B        19.2880   29.9350   71.2370 N.am      1 ANP        -0.1887
      9 PA         16.2510   31.3200   71.0760 P.3       1 ANP         0.2975
     10 O1A        15.2010   30.8060   72.0270 O.co2     1 ANP        -0.6125
     11 O2A        17.3890   31.9090   71.8580 O.co2     1 ANP        -0.6125
     12 O3A        16.8310   30.1010   70.2470 O.3       1 ANP        -0.1398
     13 O5         15.6130   32.4080   70.0710 O.3       1 ANP        -0.2475
     14 C5         16.4020   32.8080   68.9130 C.3       1 ANP         0.1128
     15 C4         16.2000   34.2750   68.5030 C.3       1 ANP         0.1189
     16 O4         14.8860   34.4730   67.9180 O.3       1 ANP        -0.3364
     17 C3         16.3140   35.3230   69.6070 C.3       1 ANP         0.1149
     18 O3         17.6850   35.6840   69.8610 O.3       1 ANP        -0.3864
     19 C2         15.3520   36.4310   69.1340 C.3       1 ANP         0.1385
     20 O2         16.0400   37.5370   68.5280 O.3       1 ANP        -0.3836
     21 C1         14.4090   35.7560   68.1460 C.3       1 ANP         0.2010
     22 N9         13.0470   35.6550   68.6980 N.pl3     1 ANP        -0.1919
     23 C8         12.5860   34.7950   69.6380 C.2       1 ANP         0.1123
     24 N7         11.2790   34.9230   69.8850 N.2       1 ANP        -0.2958
     25 C5         10.8660   35.9480   69.0720 C.ar      1 ANP         0.1045
     26 C6          9.5790   36.5350   68.9260 C.ar      1 ANP         0.1298
     27 N6          8.5250   36.2230   69.5420 N.pl3     1 ANP        -0.3152
     28 N1          9.6240   37.5490   68.0120 N.ar      1 ANP        -0.2698
     29 C2         10.7340   37.9740   67.3150 C.ar      1 ANP         0.0533
     30 N3         11.9220   37.4480   67.4500 N.ar      1 ANP        -0.2714
     31 C4         11.9430   36.4300   68.3430 C.ar      1 ANP         0.1613
     32 H1         19.1622   30.9250   71.3010 H         1 ANP         0.1880
     33 H2         16.1204   32.1684   68.0635 H         1 ANP         0.0648
     34 H3         17.4657   32.6570   69.1489 H         1 ANP         0.0648
     35 H4         16.9661   34.5002   67.7465 H         1 ANP         0.0651
     36 H5         15.9216   34.9077   70.5470 H         1 ANP         0.0648
     37 H6         18.0693   36.0409   69.0689 H         1 ANP         0.2100
     38 H7         14.7792   36.8098   69.9933 H         1 ANP         0.0676
     39 H8         16.6394   37.9193   69.1582 H         1 ANP         0.2101
     40 H9         14.3848   36.3267   67.2059 H         1 ANP         0.0996
     41 H10        13.2202   34.0686   70.1440 H         1 ANP         0.1349
     42 H11         7.6471   36.7254   69.3478 H         1 ANP         0.1820
     43 H12         8.5413   35.4655   70.2398 H         1 ANP         0.1820
     44 H13        10.6145   38.7922   66.6141 H         1 ANP         0.0996
@<TRIPOS>BOND
     1    1    2 ar 
     2    1    3 ar 
     3    1    4 ar 
     4    8    1 am 
     5    5    6 ar 
     6    5    7 ar 
     7    5    8 am 
     8   12    5 1  
     9    9   10 ar 
    10    9   11 ar 
    11    9   12 1  
    12    9   13 1  
    13   13   14 1  
    14   14   15 1  
    15   15   16 1  
    16   15   17 1  
    17   16   21 1  
    18   17   18 1  
    19   17   19 1  
    20   19   20 1  
    21   19   21 1  
    22   21   22 1  
    23   22   23 1  
    24   22   31 1  
    25   23   24 2  
    26   24   25 1  
    27   25   26 ar 
    28   25   31 ar 
    29   26   27 1  
    30   26   28 ar 
    31   28   29 ar 
    32   29   30 ar 
    33   30   31 ar 
    34    8   32 1  
    35   14   33 1  
    36   14   34 1  
    37   15   35 1  
    38   17   36 1  
    39   18   37 1  
    40   19   38 1  
    41   20   39 1  
    42   21   40 1  
    43   23   41 1  
    44   27   42 1  
    45   27   43 1  
    46   29   44 1  
@<TRIPOS>SUBSTRUCTURE
     1 ANP         1

