REMARK  5 active torsions:
REMARK  status: ('A' for Active; 'I' for Inactive)
REMARK    1  A    between atoms: C2_3  and  C5_9 
REMARK    2  A    between atoms: C11_15  and  C2_3 
REMARK    3  A    between atoms: C3_5  and  N3_7 
REMARK    4  A    between atoms: C19_23  and  C15_19 
REMARK    5  A    between atoms: C22_26  and  O2_27 
ROOT
ATOM      1  O1  MOL d          22.864  12.918  22.151  0.00  0.00    -0.269 OA
ATOM      2  C1  MOL d          22.776  11.740  22.437  0.00  0.00     0.276 A 
ATOM      3  C2  MOL d          22.533  10.552  21.430  0.00  0.00     0.183 A 
ATOM      4  N1  MOL d          22.698   9.362  22.329  0.00  0.00    -0.199 N 
ATOM      5  C3  MOL d          22.853   9.782  23.595  0.00  0.00     0.677 A 
ATOM      6  N2  MOL d          22.944  11.200  23.691  0.00  0.00    -0.153 N 
ATOM      7  C4  MOL d          23.180  11.999  24.900  0.00  0.00     0.178 C 
ATOM      8  H1  MOL d          22.693   8.378  22.023  0.00  0.00     0.179 HD
ENDROOT
BRANCH   3   9
ATOM      9  C5  MOL d          21.100  10.596  20.863  0.00  0.00    -0.015 A 
ATOM     10  C6  MOL d          20.342   9.433  20.766  0.00  0.00     0.010 A 
ATOM     11  C7  MOL d          19.040   9.467  20.269  0.00  0.00     0.001 A 
ATOM     12  C8  MOL d          18.481  10.659  19.870  0.00  0.00     0.000 A 
ATOM     13  C9  MOL d          19.220  11.824  19.954  0.00  0.00     0.001 A 
ATOM     14  C10 MOL d          20.525  11.794  20.441  0.00  0.00     0.010 A 
ENDBRANCH   3   9
BRANCH   3  15
ATOM     15  C11 MOL d          23.644  10.601  20.364  0.00  0.00    -0.015 A 
ATOM     16  C12 MOL d          23.355  10.882  19.031  0.00  0.00     0.010 A 
ATOM     17  C13 MOL d          24.374  11.065  18.108  0.00  0.00     0.002 A 
ATOM     18  C14 MOL d          25.694  10.956  18.504  0.00  0.00     0.012 A 
ATOM     19  C15 MOL d          26.015  10.644  19.829  0.00  0.00    -0.025 A 
ATOM     20  C16 MOL d          24.977  10.462  20.751  0.00  0.00     0.022 A 
BRANCH  19  21
ATOM     21  C19 MOL d          27.429  10.516  20.273  0.00  0.00    -0.023 A 
ATOM     22  C18 MOL d          27.773   9.576  21.246  0.00  0.00     0.049 A 
ATOM     23  C22 MOL d          29.040   9.569  21.818  0.00  0.00     0.069 A 
ATOM     24  C17 MOL d          29.997  10.494  21.415  0.00  0.00     0.037 A 
ATOM     25  C21 MOL d          29.682  11.400  20.413  0.00  0.00     0.004 A 
ATOM     26  C20 MOL d          28.412  11.412  19.846  0.00  0.00     0.012 A 
BRANCH  23  27
ATOM     27  O2  MOL d          29.203   8.617  22.795  0.00  0.00    -0.356 OA
ATOM     28  C23 MOL d          30.409   8.653  23.574  0.00  0.00     0.210 C 
ENDBRANCH  23  27
ENDBRANCH  19  21
ENDBRANCH   3  15
BRANCH   5  29
ATOM     29  N3  MOL d          22.979   8.988  24.657  0.00  0.00    -0.234 N 
ATOM     30  H2  MOL d          22.907   7.966  24.548  0.00  0.00     0.174 HD
ATOM     31  H3  MOL d          23.148   9.396  25.588  0.00  0.00     0.174 HD
ENDBRANCH   5  29
TORSDOF 5
