### 
### Created by X-TOOL on Sun Nov 13 14:29:14 2016
### 

@<TRIPOS>MOLECULE
5cbm_ligand
   29    29     1     0     0
SMALL
GAST_HUCK


@<TRIPOS>ATOM
      1 N12       172.1170   12.6210   85.6860 N.4       1 MOL         0.2458
      2 C13       171.9530   14.6640   84.3600 C.ar      1 MOL         0.0223
      3 C15       171.3130   16.9530   84.7400 C.ar      1 MOL        -0.0683
      4 C17       170.2580   15.6830   83.0050 C.ar      1 MOL        -0.0683
      5 C06       175.6560   16.1580   84.7710 C.3       1 MOL         0.0164
      6 C07       175.3610   14.7920   84.1910 C.3       1 MOL         0.0319
      7 P08       174.4380   13.8050   85.3710 P.3       1 MOL         0.0493
      8 O09       174.3940   14.5080   86.7780 O.co2     1 MOL        -0.6140
      9 O10       175.1090   12.5020   85.5380 O.co2     1 MOL        -0.6140
     10 C11       172.7830   13.4400   84.7140 C.3       1 MOL         0.0705
     11 C14       172.0860   15.8450   85.0700 C.ar      1 MOL        -0.0533
     12 C16       170.3910   16.8640   83.7070 C.ar      1 MOL        -0.0687
     13 C18       171.0300   14.5850   83.3330 C.ar      1 MOL        -0.0533
     14 C19       175.1310   17.1690   83.7960 C.2       1 MOL         0.0363
     15 O20       174.4830   18.1650   84.2020 O.co2     1 MOL        -0.5690
     16 O21       175.3430   16.9850   82.5740 O.co2     1 MOL        -0.5690
     17 H1        171.1911   12.3955   85.3576 H         1 MOL         0.2027
     18 H2        172.0514   13.1213   86.5586 H         1 MOL         0.2027
     19 H3        172.6406   11.7709   85.8246 H         1 MOL         0.2027
     20 H4        171.4302   17.8815   85.2871 H         1 MOL         0.0599
     21 H5        169.5441   15.6166   82.1920 H         1 MOL         0.0599
     22 H6        176.7405   16.2869   84.9021 H         1 MOL         0.0446
     23 H7        175.1530   16.2730   85.7424 H         1 MOL         0.0446
     24 H8        176.3082   14.2849   83.9552 H         1 MOL         0.0486
     25 H9        174.7683   14.9077   83.2716 H         1 MOL         0.0486
     26 H10       172.9076   12.8565   83.7899 H         1 MOL         0.1232
     27 H11       172.7959   15.9064   85.8869 H         1 MOL         0.0559
     28 H12       169.7766   17.7199   83.4519 H         1 MOL         0.0559
     29 H13       170.9118   13.6582   82.7833 H         1 MOL         0.0559
@<TRIPOS>BOND
     1   10    1 1  
     2   10    2 1  
     3    2   11 ar 
     4    2   13 ar 
     5   11    3 ar 
     6    3   12 ar 
     7    4   12 ar 
     8   13    4 ar 
     9    6    5 1  
    10    5   14 1  
    11    7    6 1  
    12    7    8 ar 
    13    7    9 ar 
    14    7   10 1  
    15   14   15 ar 
    16   14   16 ar 
    17    1   17 1  
    18    1   18 1  
    19    1   19 1  
    20    3   20 1  
    21    4   21 1  
    22    5   22 1  
    23    5   23 1  
    24    6   24 1  
    25    6   25 1  
    26   10   26 1  
    27   11   27 1  
    28   12   28 1  
    29   13   29 1  
@<TRIPOS>SUBSTRUCTURE
     1 MOL         1

