REMARK  4 active torsions:
REMARK  status: ('A' for Active; 'I' for Inactive)
REMARK    1  A    between atoms: C01_1  and  C02_2 
REMARK    2  A    between atoms: C02_2  and  C03_3 
REMARK    3  A    between atoms: C02_2  and  NP3_6 
REMARK    4  A    between atoms: C03_3  and  N14_7 
ROOT
ATOM      1  C03 QUS d          16.611  42.134  18.187  0.00  0.00     0.176 C 
ENDROOT
BRANCH   1   2
ATOM      2  C02 QUS d          18.032  42.519  18.657  0.00  0.00     0.299 C 
BRANCH   2   3
ATOM      3  C01 QUS d          19.010  41.391  18.455  0.00  0.00     0.205 C 
ATOM      4  O16 QUS d          19.870  41.515  17.573  0.00  0.00    -0.646 OA
ATOM      5  O17 QUS d          18.855  40.379  19.187  0.00  0.00    -0.646 OA
ENDBRANCH   2   3
BRANCH   2   6
ATOM      6  NP3 QUS d          18.481  43.745  17.961  0.00  0.00    -0.064 N 
ATOM      7  H4  QUS d          19.408  43.988  18.273  0.00  0.00     0.275 HD
ATOM      8  H5  QUS d          17.847  44.501  18.169  0.00  0.00     0.275 HD
ATOM      9  H6  QUS d          18.494  43.581  16.966  0.00  0.00     0.275 HD
ENDBRANCH   2   6
ENDBRANCH   1   2
BRANCH   1  10
ATOM     10  N14 QUS d          16.737  41.452  16.888  0.00  0.00    -0.097 NA
ATOM     11  C04 QUS d          15.574  40.881  16.336  0.00  0.00     0.329 C 
ATOM     12  N15 QUS d          15.483  41.115  15.019  0.00  0.00    -0.256 N 
ATOM     13  O18 QUS d          14.800  40.242  17.013  0.00  0.00    -0.251 OA
ATOM     14  C05 QUS d          16.456  41.986  14.725  0.00  0.00     0.386 C 
ATOM     15  H7  QUS d          14.821  40.718  14.383  0.00  0.00     0.175 HD
ATOM     16  O19 QUS d          16.764  42.501  13.659  0.00  0.00    -0.236 OA
ATOM     17  O20 QUS d          17.248  42.342  15.870  0.00  0.00    -0.197 OA
ENDBRANCH   1  10
TORSDOF 4
