### 
### Created by X-TOOL on Fri Sep 26 17:34:52 2014
### 

@<TRIPOS>MOLECULE
3p7i_ligand
   14    13     1     0     0
SMALL
GAST_HUCK


@<TRIPOS>ATOM
      1 NAA        -2.1720  -22.9120   10.8600 N.4       1 P7I         0.2195
      2 OAB        -5.5470  -23.4670   13.8490 O.co2     1 P7I        -0.5621
      3 OAC        -5.3270  -20.9210   14.3340 O.co2     1 P7I        -0.5621
      4 OAD        -6.2780  -21.7710   12.0480 O.co2     1 P7I        -0.5621
      5 CAE        -3.4380  -23.0540   11.5230 C.3       1 P7I        -0.0201
      6 CAF        -3.6430  -21.9530   12.6210 C.3       1 P7I         0.0595
      7 PAG        -5.2850  -22.0160   13.2830 P.3       1 P7I         0.0628
      8 H1         -2.0748  -23.6339   10.1632 H         1 P7I         0.1995
      9 H2         -1.4280  -22.9943   11.5351 H         1 P7I         0.1995
     10 H3         -2.1246  -22.0082   10.4162 H         1 P7I         0.1995
     11 H4         -3.4824  -24.0448   11.9987 H         1 P7I         0.0827
     12 H5         -4.2425  -22.9687   10.7777 H         1 P7I         0.0827
     13 H6         -3.4731  -20.9626   12.1736 H         1 P7I         0.0504
     14 H7         -2.9206  -22.1168   13.4342 H         1 P7I         0.0504
@<TRIPOS>BOND
     1    5    1 1  
     2    7    2 ar 
     3    7    3 ar 
     4    7    4 ar 
     5    6    5 1  
     6    6    7 1  
     7    1    8 1  
     8    1    9 1  
     9    1   10 1  
    10    5   11 1  
    11    5   12 1  
    12    6   13 1  
    13    6   14 1  
@<TRIPOS>SUBSTRUCTURE
     1 P7I         1

