### 
### Created by X-TOOL on Fri Sep 26 17:34:35 2014
### 

@<TRIPOS>MOLECULE
2pu1_ligand
   13    12     1     0     0
SMALL
GAST_HUCK


@<TRIPOS>ATOM
      1 O1P        26.6900   24.4750  -16.8690 O.co2     1 FSG        -0.5587
      2 P          26.4250   25.8380  -16.3870 P.3       1 FSG         0.1148
      3 O3P        27.6630   26.5850  -16.1440 O.co2     1 FSG        -0.5587
      4 O2P        25.4870   25.9090  -15.2800 O.co2     1 FSG        -0.5587
      5 C1         25.6410   26.7240  -17.7910 C.3       1 FSG         0.2578
      6 F          25.8300   28.0530  -17.6240 F         1 FSG        -0.2026
      7 C2         24.1600   26.5140  -17.8150 C.2       1 FSG         0.2503
      8 O2         23.4380   27.1010  -17.0480 O.2       1 FSG        -0.3921
      9 N3         23.7290   25.6730  -18.7300 N.am      1 FSG        -0.1606
     10 O3         22.4060   25.3770  -18.8540 O.3       1 FSG        -0.2716
     11 H1         26.0865   26.3838  -18.7374 H         1 FSG         0.1094
     12 H2         24.3870   25.2420  -19.3475 H         1 FSG         0.2218
     13 H3         22.2867   24.7562  -19.5631 H         1 FSG         0.2490
@<TRIPOS>BOND
     1    1    2 ar 
     2    2    3 ar 
     3    2    4 ar 
     4    2    5 1  
     5    5    6 1  
     6    5    7 1  
     7    7    8 2  
     8    7    9 am 
     9    9   10 1  
    10    5   11 1  
    11    9   12 1  
    12   10   13 1  
@<TRIPOS>SUBSTRUCTURE
     1 FSG         1

