### 
### Created by X-TOOL on Fri Sep 26 17:34:56 2014
### 

@<TRIPOS>MOLECULE
4ewn_ligand
   40    40     1     0     0
SMALL
GAST_HUCK


@<TRIPOS>ATOM
      1 P          19.1340   17.5550   24.7670 P.3       1 MOL         0.2008
      2 O1P        20.4820   17.8840   24.1710 O.co2     1 MOL        -0.5537
      3 O2P        18.8900   18.3490   26.0420 O.co2     1 MOL        -0.5537
      4 O3P        19.1870   16.0720   25.0800 O.co2     1 MOL        -0.5537
      5 O5'        17.9520   17.9200   23.7930 O.3       1 MOL        -0.2734
      6 C5'        17.2250   16.9320   23.1120 C.3       1 MOL         0.1068
      7 C4'        16.1530   17.5690   22.2300 C.3       1 MOL         0.1111
      8 O4'        15.2060   18.1580   23.0380 O.3       1 MOL        -0.3865
      9 C3'        16.7250   18.5640   21.2290 C.3       1 MOL         0.1113
     10 O3'        17.7670   17.9370   20.5770 O.3       1 MOL        -0.3865
     11 C2'        15.7570   19.0360   20.1610 C.3       1 MOL         0.1045
     12 O2'        14.4450   18.7470   20.4450 O.3       1 MOL        -0.3870
     13 C1'        15.8430   20.5210   19.9400 C.3       1 MOL         0.0603
     14 NH         14.6480   20.9570   19.2050 N.pl3     1 MOL        -0.3040
     15 C1         12.8870   22.3910   18.9560 C.2       1 MOL        -0.0082
     16 C2         13.8640   22.1050   19.6400 C.2       1 MOL         0.0461
     17 C3         14.3730   22.6680   20.7710 C.3       1 MOL         0.0176
     18 C4         13.4660   23.9150   21.1930 C.3       1 MOL        -0.0248
     19 C5         12.2630   24.1340   20.1990 C.2       1 MOL        -0.1092
     20 C6         12.1340   23.2930   19.1620 C.2       1 MOL        -0.1052
     21 C7         12.5500   21.5840   17.7420 C.2       1 MOL         0.0270
     22 O71        12.5210   20.3450   17.9620 O.co2     1 MOL        -0.5773
     23 O72        12.3400   22.3070   16.7350 O.co2     1 MOL        -0.5773
     24 H1         16.7432   16.2676   23.8444 H         1 MOL         0.0639
     25 H2         17.9113   16.3471   22.4821 H         1 MOL         0.0639
     26 H3         15.6656   16.7671   21.6561 H         1 MOL         0.0646
     27 H4         14.5344   18.5573   22.4976 H         1 MOL         0.2100
     28 H5         17.0943   19.4413   21.7803 H         1 MOL         0.0647
     29 H6         18.1471   18.5336   19.9429 H         1 MOL         0.2100
     30 H7         16.0279   18.5259   19.2249 H         1 MOL         0.0641
     31 H8         14.1983   19.1685   21.2597 H         1 MOL         0.2100
     32 H9         16.7441   20.7567   19.3548 H         1 MOL         0.0559
     33 H10        15.8901   21.0376   20.9100 H         1 MOL         0.0559
     34 H11        14.3580   20.4392   18.3631 H         1 MOL         0.1901
     35 H12        15.4015   23.0089   20.5813 H         1 MOL         0.0540
     36 H13        14.3767   21.9249   21.5821 H         1 MOL         0.0540
     37 H14        14.0896   24.8211   21.2007 H         1 MOL         0.0410
     38 H15        13.0651   23.7372   22.2018 H         1 MOL         0.0410
     39 H16        11.5546   24.9472   20.3501 H         1 MOL         0.0362
     40 H17        11.3019   23.4408   18.4752 H         1 MOL         0.0357
@<TRIPOS>BOND
     1    1    2 ar 
     2    1    3 ar 
     3    1    4 ar 
     4    1    5 1  
     5    5    6 1  
     6    6    7 1  
     7    7    8 1  
     8    7    9 1  
     9    9   10 1  
    10    9   11 1  
    11   11   12 1  
    12   11   13 1  
    13   13   14 1  
    14   14   16 1  
    15   16   15 2  
    16   15   20 1  
    17   15   21 1  
    18   16   17 1  
    19   17   18 1  
    20   18   19 1  
    21   19   20 2  
    22   21   22 ar 
    23   21   23 ar 
    24    6   24 1  
    25    6   25 1  
    26    7   26 1  
    27    8   27 1  
    28    9   28 1  
    29   10   29 1  
    30   11   30 1  
    31   12   31 1  
    32   13   32 1  
    33   13   33 1  
    34   14   34 1  
    35   17   35 1  
    36   17   36 1  
    37   18   37 1  
    38   18   38 1  
    39   19   39 1  
    40   20   40 1  
@<TRIPOS>SUBSTRUCTURE
     1 MOL         1

