### 
### Created by X-TOOL on Fri Sep 26 17:34:40 2014
### 

@<TRIPOS>MOLECULE
2rkd_ligand
   13    12     1     0     0
SMALL
GAST_HUCK


@<TRIPOS>ATOM
      1 CB          0.5060   -4.5950    9.2440 C.3       1 MOL         0.0310
      2 CG          1.8000   -5.4000    9.3800 C.3       1 MOL         0.0152
      3 P           0.3370   -3.4350   10.6330 P.3       1 MOL         0.0595
      4 CD          2.3480   -5.8140    8.0330 C.2       1 MOL         0.0361
      5 OE1         2.8940   -6.9410    7.9170 O.co2     1 MOL        -0.5690
      6 OE2         2.2400   -4.9970    7.0910 O.co2     1 MOL        -0.5690
      7 O1          1.6770   -2.7350   10.7520 O.co2     1 MOL        -0.5622
      8 O2         -0.8070   -2.5360   10.2220 O.co2     1 MOL        -0.5622
      9 O3          0.0040   -4.3000   11.8240 O.co2     1 MOL        -0.5622
     10 H1         -0.3515   -5.2840    9.2401 H         1 MOL         0.0469
     11 H2          0.5271   -4.0305    8.3002 H         1 MOL         0.0469
     12 H3          1.5968   -6.3029    9.9745 H         1 MOL         0.0444
     13 H4          2.5507   -4.7829    9.8954 H         1 MOL         0.0444
@<TRIPOS>BOND
     1    1    2 1  
     2    1    3 1  
     3    2    4 1  
     4    3    7 ar 
     5    3    8 ar 
     6    3    9 ar 
     7    4    5 ar 
     8    4    6 ar 
     9    1   10 1  
    10    1   11 1  
    11    2   12 1  
    12    2   13 1  
@<TRIPOS>SUBSTRUCTURE
     1 MOL         1

