3dhv_ligand

Created by X-TOOL on Fri Sep 26 17:34:41 2014
 35 37  0  0  0  0  0  0  0  0999 V2000
   19.2360   -9.3940    9.2620  P 0  0  0  1  0  4
   18.3690   -8.6940    8.2930  O 0  0  0  1  0  1
   18.6330  -10.8460    9.5710  O 0  0  0  1  0  1
   20.6380   -9.5610    8.6740  O 0  0  0  1  0  1
   19.3180   -8.5050   10.6420  O 0  0  0  1  0  2
   20.0990   -9.0070   11.8520  C 0  0  0  3  0  4
   20.1580   -8.0340   12.7470  C 0  0  0  2  0  4
   18.8380   -7.8730   13.3870  O 0  0  0  1  0  2
   21.1560   -8.4200   13.9030  C 0  0  0  2  0  4
   22.4550   -8.0830   13.5700  O 0  0  0  2  0  2
   20.4760   -7.7620   15.1590  C 0  0  0  2  0  4
   20.9560   -6.2920   15.2310  O 0  0  0  2  0  2
   18.9880   -7.7640   14.8200  C 0  0  0  2  0  4
   18.3170   -8.7560   15.4830  N 0  0  0  1  0  3
   18.0290  -10.0620   15.0340  C 0  0  0  2  0  3
   17.3680  -10.7070   15.9540  N 0  0  0  1  0  2
   17.1920   -9.8850   17.0200  C 0  0  0  1  0  3
   16.5730  -10.0140   18.2680  C 0  0  0  1  0  3
   15.9620  -11.1650   18.6400  N 0  0  0  3  0  3
   16.5870   -8.9230   19.1520  N 0  0  0  1  0  2
   17.2130   -7.7030   18.7960  C 0  0  0  2  0  3
   17.8210   -7.5360   17.5930  N 0  0  0  1  0  2
   17.7880   -8.6620   16.7270  C 0  0  0  1  0  3
   21.1164   -9.2910   11.5452  H 0  0  0  1  0  1
   19.5898   -9.8800   12.2862  H 0  0  0  1  0  1
   20.4719   -7.0980   12.2618  H 0  0  0  1  0  1
   21.1499   -9.5102   14.0490  H 0  0  0  1  0  1
   22.5095   -7.1465   13.4201  H 0  0  0  1  0  1
   20.6937   -8.3065   16.0897  H 0  0  0  1  0  1
   21.9019   -6.2728   15.3167  H 0  0  0  1  0  1
   18.5603   -6.8020   15.1387  H 0  0  0  1  0  1
   18.3155  -10.4696   14.0656  H 0  0  0  1  0  1
   15.5134  -11.2344   19.5646  H 0  0  0  1  0  1
   15.9462  -11.9704   17.9981  H 0  0  0  1  0  1
   17.2066   -6.8809   19.5025  H 0  0  0  1  0  1
  1  2  2  0  0  2
  1  3  2  0  0  2
  1  4  2  0  0  2
  1  5  1  0  0  2
  5  6  1  0  0  2
  6  7  1  0  0  2
  7  8  1  0  0  1
  7  9  1  0  0  1
  8 13  1  0  0  1
  9 10  1  0  0  2
  9 11  1  0  0  1
 11 12  1  0  0  2
 11 13  1  0  0  1
 13 14  1  0  0  2
 14 15  1  0  0  1
 14 23  1  0  0  1
 15 16  2  0  0  1
 16 17  1  0  0  1
 17 18  4  0  0  1
 17 23  4  0  0  1
 18 19  1  0  0  2
 18 20  4  0  0  1
 20 21  4  0  0  1
 21 22  4  0  0  1
 22 23  4  0  0  1
  6 24  1  0  0  2
  6 25  1  0  0  2
  7 26  1  0  0  2
  9 27  1  0  0  2
 10 28  1  0  0  2
 11 29  1  0  0  2
 12 30  1  0  0  2
 13 31  1  0  0  2
 15 32  1  0  0  2
 19 33  1  0  0  2
 19 34  1  0  0  2
 21 35  1  0  0  2
M  END
> <MOLECULAR_FORMULA>
C10H12N5O7P

> <MOLECULAR_WEIGHT>
345.1

> <NUM_HB_ATOMS>
12 

> <NUM_ROTOR>
3  

> <XLOGP2>
-2.49

$$$$
