### 
### Created by X-TOOL on Fri Sep 26 17:34:53 2014
### 

@<TRIPOS>MOLECULE
3qgw_ligand
   48    52     1     0     0
SMALL
GAST_HUCK


@<TRIPOS>ATOM
      1 C1         18.8490   -7.5860    4.2720 C.3       1 PQC         0.0142
      2 C2         19.8190   -6.9010    3.1530 C.3       1 PQC        -0.0012
      3 C3         19.5720   -8.6200    5.1960 C.2       1 PQC         0.0460
      4 C4         20.9820   -8.9790    5.0870 C.2       1 PQC        -0.0013
      5 C5         21.4400   -9.9420    6.0650 C.2       1 PQC        -0.0634
      6 S6         18.8820   -9.5270    6.5250 S.3       1 PQC        -0.0185
      7 C7         20.3380  -10.3160    6.9340 C.2       1 PQC         0.0315
      8 C8         20.4560  -11.2310    8.0670 C.ar      1 PQC        -0.0186
      9 C9         19.3000  -11.3780    8.9430 C.ar      1 PQC        -0.0592
     10 C10        21.7010  -11.9280    8.3680 C.ar      1 PQC        -0.0592
     11 C11        21.7390  -12.7410    9.5550 C.ar      1 PQC        -0.0659
     12 C12        20.5780  -12.8790   10.4320 C.ar      1 PQC        -0.0660
     13 C13        21.8740   -8.4480    4.0400 C.ar      1 PQC         0.0362
     14 C14        21.2820   -7.4620    3.0170 C.ar      1 PQC        -0.0043
     15 C15        22.1230   -7.0780    2.0190 C.ar      1 PQC         0.0074
     16 N16        23.4220   -7.5040    1.9140 N.ar      1 PQC        -0.2694
     17 N17        23.2850   -8.8790    3.9090 N.ar      1 PQC        -0.2675
     18 C18        24.0030   -8.3830    2.8240 C.ar      1 PQC         0.1933
     19 N19        25.3680   -8.6950    2.6960 N.pl3     1 PQC        -0.2467
     20 C20        26.0160   -9.7650    3.4740 C.ar      1 PQC         0.0658
     21 C21        25.5840  -10.2750    4.8070 C.ar      1 PQC        -0.0120
     22 C22        27.3010  -10.2600    3.0330 C.ar      1 PQC        -0.0385
     23 C23        28.2100  -11.1700    3.6630 C.ar      1 PQC        -0.0698
     24 C24        27.7580  -11.6380    4.9230 C.ar      1 PQC        -0.0470
     25 C25        26.4490  -11.2300    5.5480 C.ar      1 PQC         0.0984
     26 S26        26.0650  -11.8560    7.1860 S.o2      1 PQC         0.0633
     27 O27        27.3550  -12.4570    7.7800 O.2       1 PQC        -0.1507
     28 O28        24.8070  -12.4580    7.1500 O.2       1 PQC        -0.1507
     29 N29        25.6990  -10.3520    8.1870 N.am      1 PQC        -0.2611
     30 C30        19.3620  -12.1790   10.1070 C.ar      1 PQC        -0.0659
     31 H1         18.0302   -8.1026    3.7499 H         1 PQC         0.0530
     32 H2         18.4343   -6.7877    4.9051 H         1 PQC         0.0530
     33 H3         19.8980   -5.8312    3.3963 H         1 PQC         0.0452
     34 H4         19.3288   -7.0195    2.1754 H         1 PQC         0.0452
     35 H5         22.4559  -10.3275    6.1383 H         1 PQC         0.0440
     36 H6         18.3772  -10.8646    8.6981 H         1 PQC         0.0586
     37 H7         22.5663  -11.8371    7.7214 H         1 PQC         0.0586
     38 H8         22.6540  -13.2655    9.8055 H         1 PQC         0.0606
     39 H9         20.6316  -13.5016   11.3177 H         1 PQC         0.0582
     40 H10        21.7451   -6.3973    1.2648 H         1 PQC         0.0798
     41 H11        25.9382   -8.1532    2.0310 H         1 PQC         0.2158
     42 H12        24.6421   -9.9503    5.2342 H         1 PQC         0.0554
     43 H13        27.6289   -9.8817    2.0715 H         1 PQC         0.0534
     44 H14        29.1521  -11.4717    3.2197 H         1 PQC         0.0587
     45 H15        28.3907  -12.3292    5.4680 H         1 PQC         0.0537
     46 H16        25.4533  -10.4414    9.1522 H         1 PQC         0.1635
     47 H17        25.7462   -9.4467    7.7648 H         1 PQC         0.1635
     48 H18        18.4960  -12.2659   10.7532 H         1 PQC         0.0606
@<TRIPOS>BOND
     1    1    2 1  
     2    1    3 1  
     3    2   14 1  
     4    3    4 2  
     5    3    6 1  
     6    4    5 1  
     7    4   13 1  
     8    5    7 2  
     9    6    7 1  
    10    7    8 1  
    11    8    9 ar 
    12    8   10 ar 
    13    9   30 ar 
    14   10   11 ar 
    15   11   12 ar 
    16   12   30 ar 
    17   13   14 ar 
    18   13   17 ar 
    19   14   15 ar 
    20   15   16 ar 
    21   16   18 ar 
    22   17   18 ar 
    23   18   19 1  
    24   19   20 1  
    25   20   21 ar 
    26   20   22 ar 
    27   21   25 ar 
    28   22   23 ar 
    29   23   24 ar 
    30   24   25 ar 
    31   25   26 1  
    32   26   27 2  
    33   26   28 2  
    34   26   29 am 
    35    1   31 1  
    36    1   32 1  
    37    2   33 1  
    38    2   34 1  
    39    5   35 1  
    40    9   36 1  
    41   10   37 1  
    42   11   38 1  
    43   12   39 1  
    44   15   40 1  
    45   19   41 1  
    46   21   42 1  
    47   22   43 1  
    48   23   44 1  
    49   24   45 1  
    50   29   46 1  
    51   29   47 1  
    52   30   48 1  
@<TRIPOS>SUBSTRUCTURE
     1 PQC         1

