### 
### Created by X-TOOL on Fri Sep 26 17:34:43 2014
### 

@<TRIPOS>MOLECULE
3ebi_ligand
   48    49     1     0     0
SMALL
GAST_HUCK


@<TRIPOS>ATOM
      1 O3         12.9260   10.5710   10.5660 O.co2     1 BEY        -0.6154
      2 P          13.6170   11.6920   11.2970 P.3       1 BEY         0.0376
      3 O4         13.8750   12.8620   10.3840 O.co2     1 BEY        -0.6154
      4 C19        12.3310   11.9720   12.5890 C.3       1 BEY         0.0390
      5 C18        12.8020   11.6650   14.0460 C.3       1 BEY         0.0167
      6 C15        12.8560   12.8630   14.9980 C.3       1 BEY        -0.0124
      7 C16        12.8450   12.4720   16.4730 C.ar      1 BEY        -0.0428
      8 C10        13.9020   12.8630   17.3000 C.ar      1 BEY        -0.0603
      9 C11        13.9100   12.5180   18.6570 C.ar      1 BEY        -0.0686
     10 C12        12.8490   11.7860   19.1960 C.ar      1 BEY        -0.0687
     11 C14        11.7880   11.3930   18.3840 C.ar      1 BEY        -0.0686
     12 C13        11.7880   11.7460   17.0280 C.ar      1 BEY        -0.0603
     13 N          11.5970   13.2030   12.3940 N.4       1 BEY         0.2337
     14 C17        15.1690   11.1320   12.0590 C.3       1 BEY         0.0347
     15 C8         15.9310   10.0830   11.2430 C.3       1 BEY         0.0374
     16 C9         16.4800    9.0580   12.1940 C.2       1 BEY         0.0413
     17 O2         15.8230    8.0170   12.4010 O.co2     1 BEY        -0.5685
     18 O1         17.5790    9.2750   12.7460 O.co2     1 BEY        -0.5685
     19 C7         17.1040   10.7140   10.4850 C.3       1 BEY        -0.0033
     20 C1         17.6340    9.7710    9.4190 C.ar      1 BEY        -0.0411
     21 C2         17.0480    9.7490    8.1560 C.ar      1 BEY        -0.0602
     22 C3         17.5260    8.8850    7.1670 C.ar      1 BEY        -0.0686
     23 C4         18.5940    8.0320    7.4360 C.ar      1 BEY        -0.0687
     24 C6         19.1800    8.0550    8.6990 C.ar      1 BEY        -0.0686
     25 C5         18.7110    8.9240    9.6860 C.ar      1 BEY        -0.0602
     26 H1         11.5823   11.1901   12.3942 H         1 BEY         0.1066
     27 H2         13.8123   11.2335   13.9897 H         1 BEY         0.0359
     28 H3         12.1105   10.9248   14.4748 H         1 BEY         0.0359
     29 H4         11.9833   13.5031   14.8014 H         1 BEY         0.0428
     30 H5         13.7780   13.4275   14.7948 H         1 BEY         0.0428
     31 H6         14.7227   13.4384   16.8871 H         1 BEY         0.0557
     32 H7         14.7383   12.8184   19.2885 H         1 BEY         0.0599
     33 H8         12.8517   11.5236   20.2478 H         1 BEY         0.0559
     34 H9         10.9677   10.8179   18.7982 H         1 BEY         0.0599
     35 H10        10.9551   11.4513   16.3999 H         1 BEY         0.0557
     36 H11        10.9107   13.3044   13.1253 H         1 BEY         0.2013
     37 H12        11.1335   13.1797   11.4992 H         1 BEY         0.2013
     38 H13        12.2352   13.9827   12.4217 H         1 BEY         0.2013
     39 H14        14.9331   10.6985   13.0421 H         1 BEY         0.0489
     40 H15        15.8228   12.0067   12.1913 H         1 BEY         0.0489
     41 H16        15.2458    9.6057   10.5270 H         1 BEY         0.0504
     42 H17        17.9111   10.9422   11.1967 H         1 BEY         0.0447
     43 H18        16.7640   11.6439   10.0057 H         1 BEY         0.0447
     44 H19        16.2146   10.4071    7.9382 H         1 BEY         0.0557
     45 H20        17.0638    8.8786    6.1865 H         1 BEY         0.0599
     46 H21        18.9643    7.3586    6.6715 H         1 BEY         0.0559
     47 H22        20.0087    7.3915    8.9181 H         1 BEY         0.0599
     48 H23        19.1840    8.9410   10.6612 H         1 BEY         0.0557
@<TRIPOS>BOND
     1    1    2 ar 
     2    2    3 ar 
     3    2    4 1  
     4    2   14 1  
     5    4    5 1  
     6    4   13 1  
     7    5    6 1  
     8    6    7 1  
     9    7    8 ar 
    10    7   12 ar 
    11    8    9 ar 
    12    9   10 ar 
    13   10   11 ar 
    14   11   12 ar 
    15   14   15 1  
    16   15   16 1  
    17   15   19 1  
    18   16   17 ar 
    19   16   18 ar 
    20   19   20 1  
    21   20   21 ar 
    22   20   25 ar 
    23   21   22 ar 
    24   22   23 ar 
    25   23   24 ar 
    26   24   25 ar 
    27    4   26 1  
    28    5   27 1  
    29    5   28 1  
    30    6   29 1  
    31    6   30 1  
    32    8   31 1  
    33    9   32 1  
    34   10   33 1  
    35   11   34 1  
    36   12   35 1  
    37   13   36 1  
    38   13   37 1  
    39   13   38 1  
    40   14   39 1  
    41   14   40 1  
    42   15   41 1  
    43   19   42 1  
    44   19   43 1  
    45   21   44 1  
    46   22   45 1  
    47   23   46 1  
    48   24   47 1  
    49   25   48 1  
@<TRIPOS>SUBSTRUCTURE
     1 BEY         1

