### 
### Created by X-TOOL on Fri Sep 26 17:34:45 2014
### 

@<TRIPOS>MOLECULE
3kmc_ligand
   67    66     1     0     0
SMALL
GAST_HUCK


@<TRIPOS>ATOM
      1 N1          6.7220    6.2060   24.4060 N.am      1 INN        -0.2648
      2 C2          8.9670    8.1120   27.5040 C.3       1 INN        -0.0625
      3 O2          7.9820    3.6930   25.1480 O.2       1 INN        -0.3944
      4 N3          6.4950   -0.2030   25.0330 N.am      1 INN        -0.2800
      5 C4          5.9350    7.1850   24.9830 C.2       1 INN         0.1836
      6 O4          6.5800   12.7310   25.0080 O.3       1 INN        -0.2717
      7 C5          6.1860    4.9020   24.0010 C.3       1 INN         0.1357
      8 C6          6.4010    4.6820   22.4590 C.3       1 INN         0.0026
      9 C8          5.5920    5.7640   21.6340 C.3       1 INN        -0.0558
     10 C9          7.9230    4.7330   22.0880 C.3       1 INN        -0.0558
     11 C10         6.7660    3.8100   24.9280 C.2       1 INN         0.2044
     12 C11         6.0990    1.8840   26.3740 C.3       1 INN         0.1280
     13 C12         5.2720    1.9580   27.6700 C.3       1 INN        -0.0244
     14 N           5.7530   11.7290   24.5300 N.am      1 INN        -0.1641
     15 C           6.5460   10.7030   24.2160 C.2       1 INN         0.2013
     16 O           7.7190   10.7170   23.8570 O.2       1 INN        -0.3968
     17 C0          5.8390    9.4920   24.4270 C.3       1 INN         0.0585
     18 CA          6.6460    8.5330   25.3090 C.3       1 INN         0.0657
     19 CB          6.6100    9.0140   26.7680 C.3       1 INN        -0.0288
     20 C1          7.4520    7.9930   27.6190 C.3       1 INN        -0.0443
     21 C3          7.1040    8.3000   29.0830 C.3       1 INN        -0.0625
     22 O1          4.7460    7.0770   25.2150 O.2       1 INN        -0.3965
     23 C7          5.8700    3.2910   22.0980 C.3       1 INN        -0.0558
     24 N2          5.8000    2.9990   25.4800 N.am      1 INN        -0.2640
     25 C13         5.5760    0.7200   25.5430 C.2       1 INN         0.2015
     26 O3          4.3770    0.6440   25.3660 O.2       1 INN        -0.3945
     27 C14         6.0320   -1.3480   24.2320 C.3       1 INN         0.0708
     28 C15         7.0420   -1.8700   23.2130 C.3       1 INN        -0.0148
     29 N4          6.4290   -1.8950   21.8750 N.4       1 INN         0.2200
     30 H1          7.6932    6.3938   24.2592 H         1 INN         0.1883
     31 H2          9.4438    7.3513   28.1396 H         1 INN         0.0232
     32 H3          9.2821    9.1136   27.8319 H         1 INN         0.0232
     33 H4          9.2686    7.9570   26.4576 H         1 INN         0.0232
     34 H5          7.4714   -0.0844   25.2134 H         1 INN         0.1853
     35 H6          7.2020   12.9756   24.3330 H         1 INN         0.2490
     36 H7          5.0988    4.9156   24.1674 H         1 INN         0.0805
     37 H8          5.7509    5.5989   20.5581 H         1 INN         0.0237
     38 H9          5.9428    6.7704   21.9062 H         1 INN         0.0237
     39 H10         4.5201    5.6746   21.8642 H         1 INN         0.0237
     40 H11         8.4679    3.9754   22.6703 H         1 INN         0.0237
     41 H12         8.3235    5.7310   22.3192 H         1 INN         0.0237
     42 H13         8.0457    4.5283   21.0142 H         1 INN         0.0237
     43 H14         7.1727    1.8050   26.5995 H         1 INN         0.0797
     44 H15         5.5246    1.1038   28.3154 H         1 INN         0.0277
     45 H16         4.2004    1.9270   27.4235 H         1 INN         0.0277
     46 H17         5.5000    2.8960   28.1974 H         1 INN         0.0277
     47 H18         4.7579   11.7667   24.4382 H         1 INN         0.2216
     48 H19         5.6478    9.0128   23.4555 H         1 INN         0.0529
     49 H20         4.8816    9.7154   24.9204 H         1 INN         0.0529
     50 H21         7.6983    8.4854   24.9921 H         1 INN         0.0563
     51 H22         5.5717    9.0395   27.1303 H         1 INN         0.0296
     52 H23         7.0496   10.0195   26.8437 H         1 INN         0.0296
     53 H24         7.1544    6.9692   27.3485 H         1 INN         0.0297
     54 H25         7.6609    7.6185   29.7429 H         1 INN         0.0232
     55 H26         6.0241    8.1614   29.2401 H         1 INN         0.0232
     56 H27         7.3778    9.3399   29.3147 H         1 INN         0.0232
     57 H28         4.8009    3.2300   22.3496 H         1 INN         0.0237
     58 H29         6.4242    2.5284   22.6649 H         1 INN         0.0237
     59 H30         6.0036    3.1158   21.0203 H         1 INN         0.0237
     60 H31         4.8428    3.1834   25.2568 H         1 INN         0.1883
     61 H32         5.1261   -1.0410   23.6887 H         1 INN         0.0573
     62 H33         5.7858   -2.1696   24.9207 H         1 INN         0.0573
     63 H34         7.3509   -2.8880   23.4927 H         1 INN         0.0833
     64 H35         7.9222   -1.2104   23.1996 H         1 INN         0.0833
     65 H36         7.0985   -2.2400   21.2051 H         1 INN         0.1995
     66 H37         6.1462   -0.9624   21.6175 H         1 INN         0.1995
     67 H38         5.6226   -2.4997   21.8861 H         1 INN         0.1995
@<TRIPOS>BOND
     1    5    1 am 
     2    1    7 1  
     3   20    2 1  
     4   11    3 2  
     5   25    4 am 
     6    4   27 1  
     7   18    5 1  
     8    5   22 2  
     9   14    6 1  
    10    7    8 1  
    11    7   11 1  
    12    8    9 1  
    13    8   10 1  
    14    8   23 1  
    15   11   24 am 
    16   12   13 1  
    17   24   12 1  
    18   12   25 1  
    19   15   14 am 
    20   15   16 2  
    21   17   15 1  
    22   18   17 1  
    23   19   18 1  
    24   19   20 1  
    25   20   21 1  
    26   25   26 2  
    27   27   28 1  
    28   28   29 1  
    29    1   30 1  
    30    2   31 1  
    31    2   32 1  
    32    2   33 1  
    33    4   34 1  
    34    6   35 1  
    35    7   36 1  
    36    9   37 1  
    37    9   38 1  
    38    9   39 1  
    39   10   40 1  
    40   10   41 1  
    41   10   42 1  
    42   12   43 1  
    43   13   44 1  
    44   13   45 1  
    45   13   46 1  
    46   14   47 1  
    47   17   48 1  
    48   17   49 1  
    49   18   50 1  
    50   19   51 1  
    51   19   52 1  
    52   20   53 1  
    53   21   54 1  
    54   21   55 1  
    55   21   56 1  
    56   23   57 1  
    57   23   58 1  
    58   23   59 1  
    59   24   60 1  
    60   27   61 1  
    61   27   62 1  
    62   28   63 1  
    63   28   64 1  
    64   29   65 1  
    65   29   66 1  
    66   29   67 1  
@<TRIPOS>SUBSTRUCTURE
     1 INN         1

