### 
### Created by X-TOOL on Fri Sep 26 17:34:30 2014
### 

@<TRIPOS>MOLECULE
1w4q_ligand
   31    32     1     0     0
SMALL
GAST_HUCK


@<TRIPOS>ATOM
      1 N1         36.2250   -2.3660   12.1580 N.am      1 UMF        -0.1588
      2 C2         35.0290   -2.5550   11.4210 C.2       1 UMF         0.3328
      3 O2         34.7000   -1.7980   10.5870 O.2       1 UMF        -0.3815
      4 N3         34.3270   -3.7120   11.7940 N.am      1 UMF        -0.1865
      5 C4         34.6750   -4.6670   12.7960 C.2       1 UMF         0.1822
      6 O4         33.9250   -5.6050   12.9580 O.2       1 UMF        -0.4124
      7 C5         35.9240   -4.3900   13.5180 C.2       1 UMF         0.0062
      8 C6         36.6450   -3.2830   13.1940 C.2       1 UMF         0.0591
      9 O5         39.2530   -0.4990   15.5460 O.3       1 UMF        -0.3924
     10 C5         40.0020   -0.1650   14.2100 C.3       1 UMF         0.0734
     11 C4         38.7750    0.1200   13.3080 C.3       1 UMF         0.1185
     12 O4         38.4020   -1.1420   12.9600 O.3       1 UMF        -0.3361
     13 C3         37.6410    1.0610   13.2010 C.3       1 UMF         0.1535
     14 O3         37.5420    2.5320   12.9110 O.3       1 UMF        -0.2672
     15 C2         36.5030    0.3120   12.3010 C.3       1 UMF         0.1887
     16 F2         36.2460    1.3130   11.5430 F         1 UMF        -0.2365
     17 C1         37.1740   -1.1150   11.8700 C.3       1 UMF         0.2114
     18 O3P        35.4680    3.1250   13.5200 O.co2     1 UMF        -0.5537
     19 P          37.0160    3.5030   13.6300 P.3       1 UMF         0.2013
     20 O1P        37.3410    3.6810   15.0910 O.co2     1 UMF        -0.5537
     21 O2P        37.4710    4.6660   12.8340 O.co2     1 UMF        -0.5537
     22 H1         33.4780   -3.8890   11.2961 H         1 UMF         0.2259
     23 H2         36.2682   -5.0623   14.3025 H         1 UMF         0.0258
     24 H3         37.5694   -3.0806   13.7329 H         1 UMF         0.1178
     25 H4         38.6832   -1.2469   15.4099 H         1 UMF         0.2095
     26 H5         40.5932   -1.0175   13.8445 H         1 UMF         0.0584
     27 H6         40.6528    0.7160   14.3113 H         1 UMF         0.0584
     28 H7         39.3186    0.4879   12.4253 H         1 UMF         0.0650
     29 H8         37.2659    1.0391   14.2348 H         1 UMF         0.0707
     30 H9         35.5930    0.0715   12.8703 H         1 UMF         0.0738
     31 H10        37.5145   -1.1206   10.8241 H         1 UMF         0.1000
@<TRIPOS>BOND
     1    1    2 am 
     2    1    8 1  
     3   17    1 1  
     4    2    3 2  
     5    2    4 am 
     6    4    5 am 
     7    5    6 2  
     8    7    5 1  
     9    8    7 2  
    10   10    9 1  
    11   11   10 1  
    12   12   11 1  
    13   11   13 1  
    14   12   17 1  
    15   13   14 1  
    16   13   15 1  
    17   14   19 1  
    18   15   16 1  
    19   15   17 1  
    20   19   18 ar 
    21   19   20 ar 
    22   19   21 ar 
    23    4   22 1  
    24    7   23 1  
    25    8   24 1  
    26    9   25 1  
    27   10   26 1  
    28   10   27 1  
    29   11   28 1  
    30   13   29 1  
    31   15   30 1  
    32   17   31 1  
@<TRIPOS>SUBSTRUCTURE
     1 UMF         1

