### 
### Created by X-TOOL on Fri Sep 26 17:34:45 2014
### 

@<TRIPOS>MOLECULE
2zym_ligand
  126   132     1     0     0
SMALL
GAST_HUCK


@<TRIPOS>ATOM
      1 C1A        16.5910    5.9200   12.6180 C.3       1 ACX         0.1884
      2 C2A        15.5460    5.8960   13.7640 C.3       1 ACX         0.1341
      3 C3A        16.0260    4.9540   14.8690 C.3       1 ACX         0.1144
      4 C4A        16.1490    3.5570   14.2720 C.3       1 ACX         0.1184
      5 C5A        17.2020    3.6050   13.1120 C.3       1 ACX         0.1134
      6 C6A        17.3890    2.2910   12.4170 C.3       1 ACX         0.0730
      7 O1A        17.8050    6.3600   13.1750 O.3       1 ACX        -0.3401
      8 O2A        15.3930    7.2190   14.2680 O.3       1 ACX        -0.3841
      9 O3A        15.0750    4.9130   15.9260 O.3       1 ACX        -0.3864
     10 O5A        16.7950    4.5770   12.0960 O.3       1 ACX        -0.3405
     11 O6A        16.2030    1.9090   11.7250 O.3       1 ACX        -0.3924
     12 C1B        20.8090    9.2510   13.1530 C.3       1 ACX         0.1884
     13 C2B        19.3490    9.7680   13.1520 C.3       1 ACX         0.1341
     14 C3B        18.4610    8.6280   13.6320 C.3       1 ACX         0.1144
     15 C4B        18.6280    7.4460   12.6920 C.3       1 ACX         0.1184
     16 C5B        20.0990    6.9700   12.6620 C.3       1 ACX         0.1134
     17 C6B        20.2800    5.8190   11.6730 C.3       1 ACX         0.0730
     18 O1B        21.1010    8.8170   14.4740 O.3       1 ACX        -0.3401
     19 O2B        19.1900   10.8870   14.0510 O.3       1 ACX        -0.3841
     20 O3B        17.1220    9.0770   13.6380 O.3       1 ACX        -0.3864
     21 O5B        20.9310    8.0890   12.2220 O.3       1 ACX        -0.3405
     22 O6B        21.5940    5.2480   11.7580 O.3       1 ACX        -0.3924
     23 C1C        23.8050    8.3340   17.5700 C.3       1 ACX         0.1884
     24 C2C        22.6010    9.2640   17.8420 C.3       1 ACX         0.1341
     25 C3C        21.5630    9.0250   16.7470 C.3       1 ACX         0.1144
     26 C4C        22.1140    9.3070   15.3300 C.3       1 ACX         0.1184
     27 C5C        23.4140    8.4810   15.1080 C.3       1 ACX         0.1134
     28 C6C        24.2370    8.8530   13.8900 C.3       1 ACX         0.0730
     29 O1C        23.3770    6.9910   17.6280 O.3       1 ACX        -0.3401
     30 O2C        22.0540    8.9690   19.1430 O.3       1 ACX        -0.3841
     31 O3C        20.3830    9.8390   16.8840 O.3       1 ACX        -0.3864
     32 O5C        24.3230    8.6340   16.2420 O.3       1 ACX        -0.3405
     33 O6C        24.8730   10.1200   14.0450 O.3       1 ACX        -0.3924
     34 C1D        24.3540    3.1400   18.8510 C.3       1 ACX         0.1884
     35 C2D        24.2620    4.2130   19.9300 C.3       1 ACX         0.1341
     36 C3D        23.4700    5.3950   19.3540 C.3       1 ACX         0.1144
     37 C4D        24.2170    5.9570   18.1130 C.3       1 ACX         0.1184
     38 C5D        24.3840    4.8620   17.0450 C.3       1 ACX         0.1134
     39 C6D        25.2490    5.2750   15.8670 C.3       1 ACX         0.0730
     40 O1D        23.0820    2.7280   18.5580 O.3       1 ACX        -0.3401
     41 O2D        23.5980    3.6580   21.0760 O.3       1 ACX        -0.3841
     42 O3D        23.3500    6.4250   20.3420 O.3       1 ACX        -0.3864
     43 O5D        25.0100    3.7010   17.6730 O.3       1 ACX        -0.3405
     44 O6D        24.8950    4.4900   14.7280 O.3       1 ACX        -0.3924
     45 C1E        20.3280   -0.3600   17.9420 C.3       1 ACX         0.1884
     46 C2E        20.9740   -0.2210   19.3460 C.3       1 ACX         0.1341
     47 C3E        21.5350    1.1840   19.5090 C.3       1 ACX         0.1144
     48 C4E        22.5640    1.4350   18.4170 C.3       1 ACX         0.1184
     49 C5E        21.9080    1.3050   17.0260 C.3       1 ACX         0.1134
     50 C6E        22.9110    1.5330   15.9130 C.3       1 ACX         0.0730
     51 O1E        19.2420    0.5450   17.8050 O.3       1 ACX        -0.3401
     52 O2E        19.9950   -0.4640   20.3470 O.3       1 ACX        -0.3841
     53 O3E        22.1640    1.3090   20.7970 O.3       1 ACX        -0.3864
     54 O5E        21.3320   -0.0700   16.9180 O.3       1 ACX        -0.3405
     55 O6E        22.3490    1.4540   14.6070 O.3       1 ACX        -0.3924
     56 C1F        15.8710    1.4880   15.6090 C.3       1 ACX         0.1884
     57 C2F        15.6960    1.4560   17.1400 C.3       1 ACX         0.1341
     58 C3F        17.0970    1.4150   17.7610 C.3       1 ACX         0.1144
     59 C4F        17.9050    0.1900   17.3050 C.3       1 ACX         0.1184
     60 C5F        17.9320    0.1280   15.7390 C.3       1 ACX         0.1134
     61 C6F        18.4170   -1.1930   15.1700 C.3       1 ACX         0.0730
     62 O1F        16.5960    2.6260   15.2590 O.3       1 ACX        -0.3401
     63 O2F        14.9960    2.6230   17.5760 O.3       1 ACX        -0.3841
     64 O3F        17.0450    1.4050   19.1930 O.3       1 ACX        -0.3864
     65 O5F        16.5750    0.3060   15.2190 O.3       1 ACX        -0.3405
     66 O6F        18.4030   -1.1440   13.7420 O.3       1 ACX        -0.3924
     67 H1         16.2624    6.5944   11.8135 H         1 ACX         0.0938
     68 H2         14.5806    5.5386   13.3765 H         1 ACX         0.0671
     69 H3         16.9992    5.2916   15.2549 H         1 ACX         0.0648
     70 H4         15.1726    3.2364   13.8798 H         1 ACX         0.0651
     71 H5         18.1662    3.9135   13.5423 H         1 ACX         0.0647
     72 H6         17.6348    1.5207   13.1628 H         1 ACX         0.0584
     73 H7         18.2145    2.3794   11.6954 H         1 ACX         0.0584
     74 H8         16.2280    7.5296   14.5978 H         1 ACX         0.2101
     75 H9         15.3683    4.3011   16.5908 H         1 ACX         0.2100
     76 H10        15.9887    2.5701   11.0773 H         1 ACX         0.2095
     77 H11        21.4992   10.0517   12.8488 H         1 ACX         0.0938
     78 H12        19.0629   10.0712   12.1341 H         1 ACX         0.0671
     79 H13        18.7527    8.3298   14.6498 H         1 ACX         0.0648
     80 H14        18.3141    7.7347   11.6780 H         1 ACX         0.0651
     81 H15        20.4028    6.6440   13.6677 H         1 ACX         0.0647
     82 H16        20.1211    6.1975   10.6525 H         1 ACX         0.0584
     83 H17        19.5372    5.0385   11.8944 H         1 ACX         0.0584
     84 H18        19.4446   10.6257   14.9282 H         1 ACX         0.2101
     85 H19        16.5541    8.3722   13.9267 H         1 ACX         0.2100
     86 H20        21.6707    4.5380   11.1315 H         1 ACX         0.2095
     87 H21        24.5886    8.5046   18.3229 H         1 ACX         0.0938
     88 H22        22.9274   10.3141   17.8157 H         1 ACX         0.0671
     89 H23        21.2661    7.9675   16.8055 H         1 ACX         0.0648
     90 H24        22.3021   10.3790   15.1703 H         1 ACX         0.0651
     91 H25        23.1183    7.4255   15.0164 H         1 ACX         0.0647
     92 H26        23.5754    8.8922   13.0121 H         1 ACX         0.0584
     93 H27        25.0084    8.0846   13.7338 H         1 ACX         0.0584
     94 H28        21.7825    8.0590   19.1723 H         1 ACX         0.2101
     95 H29        19.7529    9.5962   16.2158 H         1 ACX         0.2100
     96 H30        25.4510   10.0929   14.7984 H         1 ACX         0.2095
     97 H31        24.9406    2.2861   19.2208 H         1 ACX         0.0938
     98 H32        25.2697    4.5481   20.2167 H         1 ACX         0.0671
     99 H33        22.4673    5.0541   19.0568 H         1 ACX         0.0648
    100 H34        25.2034    6.3532   18.3960 H         1 ACX         0.0651
    101 H35        23.3875    4.5878   16.6685 H         1 ACX         0.0647
    102 H36        26.3085    5.1103   16.1126 H         1 ACX         0.0584
    103 H37        25.0852    6.3399   15.6454 H         1 ACX         0.0584
    104 H38        22.7346    3.3526   20.8233 H         1 ACX         0.2101
    105 H39        22.8611    7.1545   19.9796 H         1 ACX         0.2100
    106 H40        25.4341    4.7455   13.9888 H         1 ACX         0.2095
    107 H41        19.9603   -1.3886   17.8129 H         1 ACX         0.0938
    108 H42        21.7885   -0.9533   19.4474 H         1 ACX         0.0671
    109 H43        20.7204    1.9184   19.4255 H         1 ACX         0.0648
    110 H44        23.3775    0.7001   18.5072 H         1 ACX         0.0651
    111 H45        21.1029    2.0490   16.9351 H         1 ACX         0.0647
    112 H46        23.7010    0.7722   15.9970 H         1 ACX         0.0584
    113 H47        23.3501    2.5333   16.0415 H         1 ACX         0.0584
    114 H48        20.3938   -0.3808   21.2053 H         1 ACX         0.2101
    115 H49        22.5195    2.1850   20.8909 H         1 ACX         0.2100
    116 H50        23.0290    1.6058   13.9611 H         1 ACX         0.2095
    117 H51        14.8871    1.5131   15.1177 H         1 ACX         0.0938
    118 H52        15.1300    0.5599   17.4342 H         1 ACX         0.0671
    119 H53        17.6305    2.3212   17.4382 H         1 ACX         0.0648
    120 H54        17.5269   -0.7514   17.7302 H         1 ACX         0.0651
    121 H55        18.5836    0.9355   15.3740 H         1 ACX         0.0647
    122 H56        17.7558   -2.0023   15.5133 H         1 ACX         0.0584
    123 H57        19.4427   -1.3850   15.5179 H         1 ACX         0.0584
    124 H58        15.4773    3.3976   17.3097 H         1 ACX         0.2101
    125 H59        17.9280    1.4462   19.5411 H         1 ACX         0.2100
    126 H60        17.5173   -0.9794   13.4406 H         1 ACX         0.2095
@<TRIPOS>BOND
     1    2    1 1  
     2    1    7 1  
     3   10    1 1  
     4    3    2 1  
     5    2    8 1  
     6    4    3 1  
     7    3    9 1  
     8    4    5 1  
     9   62    4 1  
    10    5    6 1  
    11    5   10 1  
    12    6   11 1  
    13    7   15 1  
    14   13   12 1  
    15   12   18 1  
    16   21   12 1  
    17   14   13 1  
    18   13   19 1  
    19   15   14 1  
    20   14   20 1  
    21   15   16 1  
    22   16   17 1  
    23   16   21 1  
    24   17   22 1  
    25   18   26 1  
    26   24   23 1  
    27   23   29 1  
    28   32   23 1  
    29   25   24 1  
    30   24   30 1  
    31   26   25 1  
    32   25   31 1  
    33   26   27 1  
    34   27   28 1  
    35   27   32 1  
    36   28   33 1  
    37   29   37 1  
    38   35   34 1  
    39   34   40 1  
    40   43   34 1  
    41   36   35 1  
    42   35   41 1  
    43   37   36 1  
    44   36   42 1  
    45   37   38 1  
    46   38   39 1  
    47   38   43 1  
    48   39   44 1  
    49   40   48 1  
    50   46   45 1  
    51   45   51 1  
    52   54   45 1  
    53   47   46 1  
    54   46   52 1  
    55   48   47 1  
    56   47   53 1  
    57   48   49 1  
    58   49   50 1  
    59   49   54 1  
    60   50   55 1  
    61   51   59 1  
    62   56   57 1  
    63   56   62 1  
    64   56   65 1  
    65   57   58 1  
    66   57   63 1  
    67   58   59 1  
    68   58   64 1  
    69   59   60 1  
    70   60   61 1  
    71   60   65 1  
    72   61   66 1  
    73    1   67 1  
    74    2   68 1  
    75    3   69 1  
    76    4   70 1  
    77    5   71 1  
    78    6   72 1  
    79    6   73 1  
    80    8   74 1  
    81    9   75 1  
    82   11   76 1  
    83   12   77 1  
    84   13   78 1  
    85   14   79 1  
    86   15   80 1  
    87   16   81 1  
    88   17   82 1  
    89   17   83 1  
    90   19   84 1  
    91   20   85 1  
    92   22   86 1  
    93   23   87 1  
    94   24   88 1  
    95   25   89 1  
    96   26   90 1  
    97   27   91 1  
    98   28   92 1  
    99   28   93 1  
   100   30   94 1  
   101   31   95 1  
   102   33   96 1  
   103   34   97 1  
   104   35   98 1  
   105   36   99 1  
   106   37  100 1  
   107   38  101 1  
   108   39  102 1  
   109   39  103 1  
   110   41  104 1  
   111   42  105 1  
   112   44  106 1  
   113   45  107 1  
   114   46  108 1  
   115   47  109 1  
   116   48  110 1  
   117   49  111 1  
   118   50  112 1  
   119   50  113 1  
   120   52  114 1  
   121   53  115 1  
   122   55  116 1  
   123   56  117 1  
   124   57  118 1  
   125   58  119 1  
   126   59  120 1  
   127   60  121 1  
   128   61  122 1  
   129   61  123 1  
   130   63  124 1  
   131   64  125 1  
   132   66  126 1  
@<TRIPOS>SUBSTRUCTURE
     1 ACX         1

