### 
### Created by X-TOOL on Fri Sep 26 17:34:23 2014
### 

@<TRIPOS>MOLECULE
1o0m_ligand
   32    33     1     0     0
SMALL
GAST_HUCK


@<TRIPOS>ATOM
      1 O5'        39.7830    2.7300   22.6050 O.3       1 U2P        -0.3924
      2 C5'        40.3140    1.4790   23.0840 C.3       1 U2P         0.0730
      3 C4'        39.1940    0.5690   23.5380 C.3       1 U2P         0.1139
      4 O4'        38.4190    1.2290   24.5710 O.3       1 U2P        -0.3364
      5 C1'        37.0470    0.8860   24.4360 C.3       1 U2P         0.2106
      6 N1         36.2880    2.1300   24.2150 N.am      1 U2P        -0.1588
      7 C6         36.7540    3.1130   23.3700 C.2       1 U2P         0.0591
      8 C5         36.1120    4.2700   23.1800 C.2       1 U2P         0.0062
      9 C4         34.8870    4.5230   23.8700 C.2       1 U2P         0.1822
     10 O4         34.2240    5.5580   23.8050 O.2       1 U2P        -0.4124
     11 N3         34.4630    3.4950   24.6880 N.am      1 U2P        -0.1865
     12 C2         35.0910    2.2930   24.9000 C.2       1 U2P         0.3328
     13 O2         34.6200    1.4400   25.6360 O.2       1 U2P        -0.3815
     14 C2'        36.9510   -0.1680   23.3260 C.3       1 U2P         0.1724
     15 O2'        37.0610   -1.4360   23.9550 O.3       1 U2P        -0.2647
     16 P          36.4750   -2.7590   23.2470 P.3       1 U2P         0.2015
     17 O1P        37.2300   -2.9470   21.9400 O.co2     1 U2P        -0.5537
     18 O2P        36.7570   -3.8760   24.2380 O.co2     1 U2P        -0.5537
     19 O3P        34.9830   -2.5350   23.0430 O.co2     1 U2P        -0.5537
     20 C3'        38.1700    0.1940   22.4790 C.3       1 U2P         0.1192
     21 O3'        38.6490   -0.8970   21.6990 O.3       1 U2P        -0.3860
     22 H1         39.3014    3.1567   23.3039 H         1 U2P         0.2095
     23 H2         40.9893    1.6724   23.9305 H         1 U2P         0.0584
     24 H3         40.8731    0.9887   22.2735 H         1 U2P         0.0584
     25 H4         39.6476   -0.3513   23.9345 H         1 U2P         0.0647
     26 H5         36.6852    0.4309   25.3698 H         1 U2P         0.1001
     27 H6         37.6858    2.9401   22.8335 H         1 U2P         0.1178
     28 H7         36.5214    5.0171   22.5016 H         1 U2P         0.0258
     29 H8         33.6048    3.6420   25.1797 H         1 U2P         0.2259
     30 H9         36.0181   -0.1026   22.7468 H         1 U2P         0.0732
     31 H10        37.9475    1.0435   21.8165 H         1 U2P         0.0651
     32 H11        38.8981   -1.6108   22.2743 H         1 U2P         0.2100
@<TRIPOS>BOND
     1    1    2 1  
     2    2    3 1  
     3    3    4 1  
     4    3   20 1  
     5    4    5 1  
     6    5    6 1  
     7    5   14 1  
     8    6    7 am 
     9    6   12 am 
    10    7    8 2  
    11    8    9 1  
    12    9   10 2  
    13    9   11 am 
    14   11   12 am 
    15   12   13 2  
    16   14   15 1  
    17   14   20 1  
    18   15   16 1  
    19   16   17 ar 
    20   16   18 ar 
    21   16   19 ar 
    22   20   21 1  
    23    1   22 1  
    24    2   23 1  
    25    2   24 1  
    26    3   25 1  
    27    5   26 1  
    28    7   27 1  
    29    8   28 1  
    30   11   29 1  
    31   14   30 1  
    32   20   31 1  
    33   21   32 1  
@<TRIPOS>SUBSTRUCTURE
     1 U2P         1

