### 
### Created by X-TOOL on Sun Nov 13 14:27:53 2016
### 

@<TRIPOS>MOLECULE
4x8o_ligand
   81    86     1     0     0
SMALL
GAST_HUCK


@<TRIPOS>ATOM
      1 PA        -18.7680   13.6850  -33.5920 P.3       1 AP5         0.2978
      2 O1A       -17.4400   13.6230  -32.9040 O.co2     1 AP5        -0.6127
      3 O2A       -19.6640   14.6560  -32.8870 O.co2     1 AP5        -0.6127
      4 O3A       -18.6030   14.0720  -35.1050 O.3       1 AP5        -0.1265
      5 PB        -18.2660   15.5500  -35.6940 P.3       1 AP5         0.3361
      6 O1B       -17.4230   15.3670  -36.9470 O.co2     1 AP5        -0.6079
      7 O2B       -17.5180   16.3750  -34.6700 O.co2     1 AP5        -0.6079
      8 O3B       -19.6100   16.2360  -36.0480 O.3       1 AP5        -0.1210
      9 PG        -19.8050   17.8210  -36.2100 P.3       1 AP5         0.3367
     10 O1G       -18.4750   18.4750  -36.6270 O.co2     1 AP5        -0.6078
     11 O2G       -20.2800   18.4160  -34.8680 O.co2     1 AP5        -0.6078
     12 O3G       -20.8950   18.0480  -37.3960 O.3       1 AP5        -0.1210
     13 PD        -22.2250   18.9490  -37.2750 P.3       1 AP5         0.3361
     14 O1D       -23.3620   18.0590  -36.8900 O.co2     1 AP5        -0.6079
     15 O2D       -22.5040   19.5830  -38.6270 O.co2     1 AP5        -0.6079
     16 O3D       -22.0600   20.0310  -36.1570 O.3       1 AP5        -0.1265
     17 PE        -21.3000   21.4220  -36.2420 P.3       1 AP5         0.2978
     18 O1E       -19.9280   21.2600  -36.8590 O.co2     1 AP5        -0.6127
     19 O2E       -21.1570   21.9730  -34.8380 O.co2     1 AP5        -0.6127
     20 O5F       -19.4300   12.2110  -33.6000 O.3       1 AP5        -0.2476
     21 C5F       -20.7450   12.0490  -34.1020 C.3       1 AP5         0.1128
     22 C4F       -21.4820   10.9800  -33.2530 C.3       1 AP5         0.1189
     23 O4F       -21.0160    9.8080  -33.5200 O.3       1 AP5        -0.3364
     24 C3F       -21.2180   11.2210  -31.7600 C.3       1 AP5         0.1149
     25 O3F       -22.3360   10.9430  -31.0250 O.3       1 AP5        -0.3864
     26 C2F       -20.0610   10.2600  -31.4050 C.3       1 AP5         0.1385
     27 O2F       -20.1790    9.8060  -29.9960 O.3       1 AP5        -0.3836
     28 C1F       -20.1730    9.2810  -32.2300 C.3       1 AP5         0.2010
     29 N9A       -18.9080    8.8280  -32.6840 N.pl3     1 AP5        -0.1919
     30 C8A       -17.7780    9.5640  -32.8350 C.2       1 AP5         0.1123
     31 N7A       -16.8010    8.7420  -33.2990 N.2       1 AP5        -0.2958
     32 C5A       -17.3310    7.4910  -33.4400 C.ar      1 AP5         0.1045
     33 C6A       -16.7870    6.2990  -33.8690 C.ar      1 AP5         0.1298
     34 N6A       -15.4250    5.9650  -34.3270 N.pl3     1 AP5        -0.3152
     35 N1A       -17.5550    5.1800  -33.9130 N.ar      1 AP5        -0.2698
     36 C2A       -18.8650    5.2260  -33.5360 C.ar      1 AP5         0.0533
     37 N3A       -19.4050    6.3990  -33.1130 N.ar      1 AP5        -0.2714
     38 C4A       -18.6280    7.5410  -33.0660 C.ar      1 AP5         0.1613
     39 O5J       -22.1620   22.4500  -37.0960 O.3       1 AP5        -0.2476
     40 C5J       -23.4150   22.8580  -36.5540 C.3       1 AP5         0.1128
     41 C4J       -23.8050   24.2660  -37.1510 C.3       1 AP5         0.1189
     42 O4J       -23.0130   25.1890  -36.6990 O.3       1 AP5        -0.3364
     43 C3J       -23.5920   24.2640  -38.6710 C.3       1 AP5         0.1149
     44 O3J       -24.6920   23.8130  -39.2900 O.3       1 AP5        -0.3864
     45 C2J       -23.3490   25.7540  -38.9590 C.3       1 AP5         0.1385
     46 O2J       -24.6830   26.4620  -39.0520 O.3       1 AP5        -0.3836
     47 C1J       -22.6980   26.2010  -37.9230 C.3       1 AP5         0.2010
     48 N9B       -21.3050   26.2200  -38.1100 N.pl3     1 AP5        -0.1919
     49 C8B       -20.3890   25.5940  -37.3550 C.2       1 AP5         0.1123
     50 N7B       -19.1500   25.8700  -37.8650 N.2       1 AP5        -0.2958
     51 C5B       -19.3160   26.6750  -38.9460 C.ar      1 AP5         0.1045
     52 C6B       -18.4040   27.2440  -39.8140 C.ar      1 AP5         0.1298
     53 N6B       -16.9770   27.2470  -39.9790 N.pl3     1 AP5        -0.3152
     54 N1B       -18.8360   28.0280  -40.8340 N.ar      1 AP5        -0.2698
     55 C2B       -20.1660   28.2540  -40.9960 C.ar      1 AP5         0.0533
     56 N3B       -21.0690   27.6920  -40.1320 N.ar      1 AP5        -0.2714
     57 C4B       -20.6430   26.9020  -39.1070 C.ar      1 AP5         0.1613
     58 H1        -20.7014   11.7209  -35.1510 H         1 AP5         0.0648
     59 H2        -21.2842   13.0057  -34.0391 H         1 AP5         0.0648
     60 H3        -22.5611   11.0203  -33.4625 H         1 AP5         0.0651
     61 H4        -20.9178   12.2645  -31.5840 H         1 AP5         0.0648
     62 H5        -22.1553   11.0972  -30.1052 H         1 AP5         0.2100
     63 H6        -19.0912   10.7609  -31.5415 H         1 AP5         0.0676
     64 H7        -20.1448   10.5591  -29.4179 H         1 AP5         0.2101
     65 H8        -20.7048    8.4506  -31.7427 H         1 AP5         0.0996
     66 H9        -17.6728   10.6267  -32.6217 H         1 AP5         0.1349
     67 H10       -15.1998    5.0017  -34.6138 H         1 AP5         0.1820
     68 H11       -14.6992    6.6951  -34.3600 H         1 AP5         0.1820
     69 H12       -19.4734    4.3296  -33.5737 H         1 AP5         0.0996
     70 H13       -23.3359   22.9317  -35.4593 H         1 AP5         0.0648
     71 H14       -24.1874   22.1202  -36.8170 H         1 AP5         0.0648
     72 H15       -24.8515   24.4973  -36.9033 H         1 AP5         0.0651
     73 H16       -22.7246   23.6525  -38.9601 H         1 AP5         0.0648
     74 H17       -24.5492   23.8160  -40.2292 H         1 AP5         0.2100
     75 H18       -22.7719   25.8942  -39.8849 H         1 AP5         0.0676
     76 H19       -25.1953   26.0789  -39.7543 H         1 AP5         0.2101
     77 H20       -23.0456   27.2167  -37.6834 H         1 AP5         0.0996
     78 H21       -20.5965   24.9726  -36.4851 H         1 AP5         0.1349
     79 H22       -16.5486   27.7825  -40.7475 H         1 AP5         0.1820
     80 H23       -16.3823   26.7136  -39.3288 H         1 AP5         0.1820
     81 H24       -20.5133   28.8799  -41.8101 H         1 AP5         0.0996
@<TRIPOS>BOND
     1    1    2 ar 
     2    1    3 ar 
     3    1    4 1  
     4    1   20 1  
     5    4    5 1  
     6    5    6 ar 
     7    5    7 ar 
     8    5    8 1  
     9    8    9 1  
    10    9   10 ar 
    11    9   11 ar 
    12    9   12 1  
    13   12   13 1  
    14   13   14 ar 
    15   13   15 ar 
    16   13   16 1  
    17   16   17 1  
    18   17   18 ar 
    19   17   19 ar 
    20   17   39 1  
    21   20   21 1  
    22   21   22 1  
    23   22   23 1  
    24   22   24 1  
    25   23   28 1  
    26   24   25 1  
    27   24   26 1  
    28   26   27 1  
    29   26   28 1  
    30   28   29 1  
    31   29   30 1  
    32   29   38 1  
    33   30   31 2  
    34   31   32 1  
    35   32   33 ar 
    36   32   38 ar 
    37   33   34 1  
    38   33   35 ar 
    39   35   36 ar 
    40   36   37 ar 
    41   37   38 ar 
    42   39   40 1  
    43   40   41 1  
    44   41   42 1  
    45   41   43 1  
    46   42   47 1  
    47   43   44 1  
    48   43   45 1  
    49   45   46 1  
    50   45   47 1  
    51   47   48 1  
    52   48   49 1  
    53   48   57 1  
    54   49   50 2  
    55   50   51 1  
    56   51   52 ar 
    57   51   57 ar 
    58   52   53 1  
    59   52   54 ar 
    60   54   55 ar 
    61   55   56 ar 
    62   56   57 ar 
    63   21   58 1  
    64   21   59 1  
    65   22   60 1  
    66   24   61 1  
    67   25   62 1  
    68   26   63 1  
    69   27   64 1  
    70   28   65 1  
    71   30   66 1  
    72   34   67 1  
    73   34   68 1  
    74   36   69 1  
    75   40   70 1  
    76   40   71 1  
    77   41   72 1  
    78   43   73 1  
    79   44   74 1  
    80   45   75 1  
    81   46   76 1  
    82   47   77 1  
    83   49   78 1  
    84   53   79 1  
    85   53   80 1  
    86   55   81 1  
@<TRIPOS>SUBSTRUCTURE
     1 AP5         1

