### 
### Created by X-TOOL on Sat Nov 28 16:10:51 2015
### 

@<TRIPOS>MOLECULE
4uma_ligand
   16    15     1     0     0
SMALL
GAST_HUCK


@<TRIPOS>ATOM
      1 CAI        -5.2090  -84.8430    0.4120 C.2       1 GZ3         0.0389
      2 OAB        -4.6600  -85.5600   -0.4430 O.co2     1 GZ3        -0.5687
      3 OAD        -4.5850  -83.9800    0.9960 O.co2     1 GZ3        -0.5687
      4 CAH        -6.6830  -84.9990    0.7740 C.3       1 GZ3         0.0239
      5 CAA        -7.3630  -83.9210    1.6140 C.3       1 GZ3        -0.0494
      6 CAG        -7.2600  -86.3130    0.4820 C.3       1 GZ3         0.0336
      7 PAJ        -8.9860  -86.7260    0.7840 P.3       1 GZ3         0.0597
      8 OAE        -9.0490  -88.2980    0.6640 O.co2     1 GZ3        -0.5622
      9 OAF        -9.2940  -86.4360    2.2710 O.co2     1 GZ3        -0.5622
     10 OAC        -9.9360  -86.0380   -0.1660 O.co2     1 GZ3        -0.5622
     11 H          -7.0462  -84.5611   -0.1674 H         1 GZ3         0.0477
     12 H          -8.4159  -84.1939    1.7781 H         1 GZ3         0.0250
     13 H          -7.3120  -82.9577    1.0854 H         1 GZ3         0.0250
     14 H          -6.8512  -83.8346    2.5838 H         1 GZ3         0.0250
     15 H          -6.6708  -87.0368    1.0642 H         1 GZ3         0.0472
     16 H          -7.0930  -86.4835   -0.5918 H         1 GZ3         0.0472
@<TRIPOS>BOND
     1    1    2 ar 
     2    1    3 ar 
     3    1    4 1  
     4    4    5 1  
     5    4    6 1  
     6    6    7 1  
     7    7    8 ar 
     8    7    9 ar 
     9    7   10 ar 
    10    4   11 1  
    11    5   12 1  
    12    5   13 1  
    13    5   14 1  
    14    6   15 1  
    15    6   16 1  
@<TRIPOS>SUBSTRUCTURE
     1 GZ3         1

