1n8v_ligand

Created by X-TOOL on Fri Sep 26 17:34:22 2014
 39 38  0  0  0  0  0  0  0  0999 V2000
   18.7430   23.9450   24.1990  O 0  0  0  2  0  2
   18.8500   24.0610   25.6100  C 0  0  0  3  0  4
   19.0340   25.5260   25.9950  C 0  0  0  3  0  4
   18.1300   25.9000   27.1620  C 0  0  0  3  0  4
   18.7550   25.5480   28.5040  C 0  0  0  3  0  4
   17.7040   25.5940   29.6090  C 0  0  0  3  0  4
   16.9440   24.2710   29.7340  C 0  0  0  3  0  4
   15.6900   24.3910   30.5990  C 0  0  0  3  0  4
   14.6800   23.2810   30.3060  C 0  0  0  3  0  4
   13.5600   23.2720   31.3410  C 0  0  0  3  0  4
   12.4830   24.3030   31.0310  C 0  0  0  3  0  4
   11.3100   24.2240   31.9910  C 0  0  0  3  0  4
   10.1960   25.2010   31.6200  C 0  0  0  3  0  4
   10.5440   26.7090   32.1190 Br 0  0  0  1  0  1
   18.6287   23.0313   23.9653  H 0  0  0  1  0  1
   19.7160   23.4799   25.9597  H 0  0  0  1  0  1
   17.9341   23.6724   26.0790  H 0  0  0  1  0  1
   18.7861   26.1593   25.1304  H 0  0  0  1  0  1
   20.0822   25.6934   26.2837  H 0  0  0  1  0  1
   17.1778   25.3587   27.0611  H 0  0  0  1  0  1
   17.9410   26.9832   27.1317  H 0  0  0  1  0  1
   19.5529   26.2698   28.7326  H 0  0  0  1  0  1
   19.1809   24.5352   28.4509  H 0  0  0  1  0  1
   16.9858   26.3959   29.3827  H 0  0  0  1  0  1
   18.2035   25.8081   30.5654  H 0  0  0  1  0  1
   17.6122   23.5225   30.1848  H 0  0  0  1  0  1
   16.6472   23.9392   28.7281  H 0  0  0  1  0  1
   15.2151   25.3635   30.4021  H 0  0  0  1  0  1
   15.9827   24.3335   31.6578  H 0  0  0  1  0  1
   15.1967   22.3101   30.3271  H 0  0  0  1  0  1
   14.2462   23.4439   29.3084  H 0  0  0  1  0  1
   13.9889   23.4939   32.3293  H 0  0  0  1  0  1
   13.1000   22.2729   31.3568  H 0  0  0  1  0  1
   12.1145   24.1319   30.0088  H 0  0  0  1  0  1
   12.9264   25.3075   31.0976  H 0  0  0  1  0  1
   11.6652   24.4598   33.0050  H 0  0  0  1  0  1
   10.9052   23.2014   31.9728  H 0  0  0  1  0  1
    9.2592   24.8736   32.0945  H 0  0  0  1  0  1
   10.0717   25.2048   30.5271  H 0  0  0  1  0  1
  1  2  1  0  0  2
  2  3  1  0  0  2
  3  4  1  0  0  2
  4  5  1  0  0  2
  5  6  1  0  0  2
  6  7  1  0  0  2
  7  8  1  0  0  2
  8  9  1  0  0  2
  9 10  1  0  0  2
 10 11  1  0  0  2
 11 12  1  0  0  2
 12 13  1  0  0  2
 13 14  1  0  0  2
  1 15  1  0  0  2
  2 16  1  0  0  2
  2 17  1  0  0  2
  3 18  1  0  0  2
  3 19  1  0  0  2
  4 20  1  0  0  2
  4 21  1  0  0  2
  5 22  1  0  0  2
  5 23  1  0  0  2
  6 24  1  0  0  2
  6 25  1  0  0  2
  7 26  1  0  0  2
  7 27  1  0  0  2
  8 28  1  0  0  2
  8 29  1  0  0  2
  9 30  1  0  0  2
  9 31  1  0  0  2
 10 32  1  0  0  2
 10 33  1  0  0  2
 11 34  1  0  0  2
 11 35  1  0  0  2
 12 36  1  0  0  2
 12 37  1  0  0  2
 13 38  1  0  0  2
 13 39  1  0  0  2
M  END
> <MOLECULAR_FORMULA>
C12H25OBr

> <MOLECULAR_WEIGHT>
265.0

> <NUM_HB_ATOMS>
1  

> <NUM_ROTOR>
11 

> <XLOGP2>
5.28 

$$$$
