### 
### Created by X-TOOL on Fri Sep 26 17:34:17 2014
### 

@<TRIPOS>MOLECULE
1fh9_ligand
   38    39     1     0     0
SMALL
GAST_HUCK


@<TRIPOS>ATOM
      1 C1         17.0240   65.6540   38.7720 C.3       1 MOL         0.1880
      2 C2         16.7500   64.6450   39.8890 C.3       1 MOL         0.1341
      3 C3         15.2930   64.1800   39.8510 C.3       1 MOL         0.1137
      4 C4         14.3450   65.3820   39.8410 C.3       1 MOL         0.1069
      5 C5         14.7300   66.3480   38.7160 C.3       1 MOL         0.0792
      6 O2         17.6140   63.5280   39.7340 O.3       1 MOL        -0.3841
      7 O3         15.0250   63.3770   40.9910 O.3       1 MOL        -0.3864
      8 O4         13.0080   64.9330   39.6550 O.3       1 MOL        -0.3869
      9 O5         16.1090   66.7560   38.8640 O.3       1 MOL        -0.3461
     10 C1         20.2840   68.0920   35.6370 C.2       1 MOL         0.1319
     11 C2         20.1080   68.9450   36.9630 C.3       1 MOL         0.1503
     12 C3         19.7760   67.9940   38.1890 C.3       1 MOL         0.1233
     13 C4         18.7680   66.9010   37.7820 C.3       1 MOL         0.1119
     14 C5         19.4320   65.9060   36.7850 C.3       1 MOL         0.0561
     15 N1         19.9320   66.7240   35.6370 N.pl3     1 MOL        -0.3043
     16 O22        20.8960   67.6930   33.5380 O.3       1 MOL        -0.3046
     17 N2         20.7740   68.6060   34.5160 N.2       1 MOL        -0.2068
     18 O2         21.2120   69.7450   37.2520 O.3       1 MOL        -0.3713
     19 O3         19.2280   68.7490   39.2790 O.3       1 MOL        -0.3841
     20 O4         18.3660   66.1610   38.9280 O.3       1 MOL        -0.3406
     21 H1         16.9173   65.1627   37.7936 H         1 MOL         0.0937
     22 H2         16.9468   65.1228   40.8600 H         1 MOL         0.0671
     23 H3         15.1289   63.5853   38.9403 H         1 MOL         0.0647
     24 H4         14.4188   65.9064   40.8051 H         1 MOL         0.0643
     25 H5         14.0811   67.2351   38.7598 H         1 MOL         0.0587
     26 H6         14.6008   65.8467   37.7454 H         1 MOL         0.0587
     27 H7         18.5172   63.8187   39.7814 H         1 MOL         0.2101
     28 H8         14.1203   63.0880   40.9678 H         1 MOL         0.2100
     29 H9         12.7699   64.3481   40.3648 H         1 MOL         0.2100
     30 H10        19.2485   69.6145   36.8114 H         1 MOL         0.0843
     31 H11        20.7079   67.5128   38.5207 H         1 MOL         0.0673
     32 H12        17.8904   67.3697   37.3128 H         1 MOL         0.0646
     33 H13        18.6934   65.1703   36.4339 H         1 MOL         0.0544
     34 H14        20.2684   65.3825   37.2711 H         1 MOL         0.0544
     35 H15        20.0316   66.2305   34.7384 H         1 MOL         0.1808
     36 H16        21.4822   67.0019   33.8229 H         1 MOL         0.2523
     37 H17        21.0495   70.2298   38.0527 H         1 MOL         0.2137
     38 H18        19.0357   68.1643   40.0027 H         1 MOL         0.2103
@<TRIPOS>BOND
     1    1    9 1  
     2    1    2 1  
     3    2    6 1  
     4    2    3 1  
     5    3    7 1  
     6    3    4 1  
     7    4    8 1  
     8    5    4 1  
     9    9    5 1  
    10   10   17 2  
    11   15   10 1  
    12   11   10 1  
    13   11   18 1  
    14   12   11 1  
    15   12   19 1  
    16   13   12 1  
    17   20   13 1  
    18   13   14 1  
    19   14   15 1  
    20   17   16 1  
    21   20    1 1  
    22    1   21 1  
    23    2   22 1  
    24    3   23 1  
    25    4   24 1  
    26    5   25 1  
    27    5   26 1  
    28    6   27 1  
    29    7   28 1  
    30    8   29 1  
    31   11   30 1  
    32   12   31 1  
    33   13   32 1  
    34   14   33 1  
    35   14   34 1  
    36   15   35 1  
    37   16   36 1  
    38   18   37 1  
    39   19   38 1  
@<TRIPOS>SUBSTRUCTURE
     1 MOL         1

