### 
### Created by X-TOOL on Sun Nov 13 14:27:13 2016
### 

@<TRIPOS>MOLECULE
4rd3_ligand
   41    43     1     0     0
SMALL
GAST_HUCK


@<TRIPOS>ATOM
      1 PB        -30.1160  -17.4470   18.8550 P.3       1 GDP         0.2069
      2 O1B       -31.3010  -16.5850   19.1960 O.co2     1 GDP        -0.5891
      3 O2B       -29.7560  -17.2090   17.3940 O.co2     1 GDP        -0.5891
      4 O3B       -28.9420  -17.1320   19.7480 O.co2     1 GDP        -0.5891
      5 O3A       -30.5060  -18.9890   18.9480 O.3       1 GDP        -0.1548
      6 PA        -30.5090  -19.8300   20.3330 P.3       1 GDP         0.3276
      7 O1A       -29.1300  -20.3550   20.5560 O.co2     1 GDP        -0.5556
      8 O2A       -31.0950  -19.0640   21.4850 O.co2     1 GDP        -0.5556
      9 O5'       -31.4870  -21.0030   19.8410 O.3       1 GDP        -0.2436
     10 C5'       -32.8760  -20.6870   19.6950 C.3       1 GDP         0.1132
     11 C4'       -33.7020  -21.9610   19.6310 C.3       1 GDP         0.1190
     12 O4'       -33.2610  -22.7710   18.5430 O.3       1 GDP        -0.3347
     13 C3'       -33.5070  -22.7900   20.8820 C.3       1 GDP         0.1151
     14 O3'       -34.7670  -23.3700   21.2240 O.3       1 GDP        -0.3864
     15 C2'       -32.5350  -23.8660   20.4390 C.3       1 GDP         0.1407
     16 O2'       -32.5530  -25.0440   21.2650 O.3       1 GDP        -0.3835
     17 C1'       -32.9580  -24.0830   18.9920 C.3       1 GDP         0.2218
     18 N9        -31.8260  -24.6280   18.2250 N.pl3     1 GDP        -0.0954
     19 C8        -30.5750  -24.1240   18.1720 C.2       1 GDP         0.1855
     20 N7        -29.7780  -24.8840   17.3810 N.2       1 GDP        -0.1929
     21 C5        -30.5360  -25.8980   16.9210 C.2       1 GDP         0.2558
     22 C6        -30.3270  -27.0630   16.0410 C.2       1 GDP         0.2628
     23 O6        -29.2050  -27.2720   15.5420 O.2       1 GDP        -0.3594
     24 N1        -31.3680  -27.8730   15.8110 N.am      1 GDP        -0.2478
     25 C2        -32.5830  -27.6630   16.3610 C.cat     1 GDP         0.2041
     26 N2        -33.5930  -28.5250   16.0820 N.pl3     1 GDP        -0.3327
     27 N3        -32.8460  -26.6140   17.1820 N.pl3     1 GDP        -0.1901
     28 C4        -31.8810  -25.7240   17.4830 C.2       1 GDP         0.3268
     29 H1        -33.0222  -20.1127   18.7683 H         1 GDP         0.0648
     30 H2        -33.2037  -20.0848   20.5552 H         1 GDP         0.0648
     31 H3        -34.7643  -21.7027   19.5093 H         1 GDP         0.0651
     32 H4        -33.1076  -22.1974   21.7182 H         1 GDP         0.0648
     33 H5        -34.6694  -23.8966   22.0087 H         1 GDP         0.2100
     34 H6        -31.5088  -23.4707   20.4641 H         1 GDP         0.0677
     35 H7        -32.3247  -24.8079   22.1564 H         1 GDP         0.2101
     36 H8        -33.8294  -24.7500   18.9169 H         1 GDP         0.1021
     37 H9        -30.2491  -23.2262   18.6951 H         1 GDP         0.1823
     38 H10       -31.2410  -28.6621   15.2101 H         1 GDP         0.1819
     39 H11       -34.5251  -28.3771   16.4946 H         1 GDP         0.1774
     40 H12       -33.4276  -29.3273   15.4576 H         1 GDP         0.1774
     41 H13       -33.7900  -26.4981   17.5773 H         1 GDP         0.2519
@<TRIPOS>BOND
     1    1    2 ar 
     2    1    3 ar 
     3    1    4 ar 
     4    1    5 1  
     5    5    6 1  
     6    6    7 ar 
     7    6    8 ar 
     8    6    9 1  
     9    9   10 1  
    10   10   11 1  
    11   11   12 1  
    12   11   13 1  
    13   12   17 1  
    14   13   14 1  
    15   13   15 1  
    16   15   16 1  
    17   15   17 1  
    18   17   18 1  
    19   18   19 1  
    20   18   28 1  
    21   19   20 2  
    22   20   21 1  
    23   21   22 1  
    24   21   28 2  
    25   22   23 2  
    26   22   24 am 
    27   24   25 ar 
    28   25   26 ar 
    29   25   27 ar 
    30   27   28 1  
    31   10   29 1  
    32   10   30 1  
    33   11   31 1  
    34   13   32 1  
    35   14   33 1  
    36   15   34 1  
    37   16   35 1  
    38   17   36 1  
    39   19   37 1  
    40   24   38 1  
    41   26   39 1  
    42   26   40 1  
    43   27   41 1  
@<TRIPOS>SUBSTRUCTURE
     1 GDP         1

