### 
### Created by X-TOOL on Fri Sep 26 17:34:11 2014
### 

@<TRIPOS>MOLECULE
1pgp_ligand
   27    26     1     0     0
SMALL
GAST_HUCK


@<TRIPOS>ATOM
      1 C1         20.2160   29.9130   38.8060 C.2       1 MOL         0.0660
      2 C2         20.3270   28.4720   39.3500 C.3       1 MOL         0.1355
      3 C3         21.8460   27.9720   39.4820 C.3       1 MOL         0.1209
      4 C4         22.8470   28.5740   40.5780 C.3       1 MOL         0.1133
      5 C5         24.4050   28.2270   40.2800 C.3       1 MOL         0.1112
      6 C6         25.2040   29.0020   39.1600 C.3       1 MOL         0.1068
      7 O1A        21.2790   30.6310   38.5290 O.co2     1 MOL        -0.5663
      8 O1         19.1050   30.4010   38.5710 O.co2     1 MOL        -0.5663
      9 O2         19.6830   28.3710   40.6190 O.3       1 MOL        -0.3750
     10 O3         22.3540   28.1650   38.1800 O.3       1 MOL        -0.3848
     11 O4         22.7960   29.9890   40.7620 O.3       1 MOL        -0.3864
     12 O5         25.1860   28.3860   41.4580 O.3       1 MOL        -0.3865
     13 O6         25.7830   30.3680   39.4700 O.3       1 MOL        -0.2734
     14 P          27.3900   30.6110   39.6170 P.3       1 MOL         0.2008
     15 O1P        27.7430   30.0220   40.9760 O.co2     1 MOL        -0.5537
     16 O2P        27.7890   32.0490   39.7730 O.co2     1 MOL        -0.5537
     17 O3P        28.2410   29.8860   38.4890 O.co2     1 MOL        -0.5537
     18 H1         19.8107   27.8055   38.6434 H         1 MOL         0.0791
     19 H2         21.8044   26.8932   39.6927 H         1 MOL         0.0665
     20 H3         22.5695   28.1057   41.5339 H         1 MOL         0.0648
     21 H4         24.4174   27.1652   39.9930 H         1 MOL         0.0646
     22 H5         24.5197   29.1297   38.3083 H         1 MOL         0.0639
     23 H6         26.0443   28.3579   38.8618 H         1 MOL         0.0639
     24 H7         18.7837   28.6670   40.5409 H         1 MOL         0.2125
     25 H8         22.4628   29.0948   38.0183 H         1 MOL         0.2102
     26 H9         23.1023   30.4210   39.9733 H         1 MOL         0.2100
     27 H10        25.2687   29.3108   41.6594 H         1 MOL         0.2100
@<TRIPOS>BOND
     1    2    1 1  
     2    1    7 ar 
     3    1    8 ar 
     4    2    3 1  
     5    2    9 1  
     6    3    4 1  
     7    3   10 1  
     8    4    5 1  
     9    4   11 1  
    10    5    6 1  
    11    5   12 1  
    12    6   13 1  
    13   13   14 1  
    14   14   15 ar 
    15   14   16 ar 
    16   14   17 ar 
    17    2   18 1  
    18    3   19 1  
    19    4   20 1  
    20    5   21 1  
    21    6   22 1  
    22    6   23 1  
    23    9   24 1  
    24   10   25 1  
    25   11   26 1  
    26   12   27 1  
@<TRIPOS>SUBSTRUCTURE
     1 MOL         1

