### 
### Created by X-TOOL on Fri Sep 26 17:34:28 2014
### 

@<TRIPOS>MOLECULE
1tjp_ligand
   30    30     1     0     0
SMALL
GAST_HUCK


@<TRIPOS>ATOM
      1 C1         52.2250   25.4770   14.7920 C.ar      1 HPF        -0.0447
      2 C2         51.6320   24.1490   14.7880 C.ar      1 HPF        -0.0842
      3 C3         50.2200   24.1300   15.0820 C.ar      1 HPF        -0.0850
      4 C4         49.4300   25.2790   15.3400 C.ar      1 HPF        -0.0526
      5 C5         50.0820   26.5240   15.3170 C.ar      1 HPF         0.0697
      6 C6         51.4380   26.6300   15.0600 C.ar      1 HPF         0.1053
      7 O7         52.0340   27.8570   15.0600 O.3       1 HPF        -0.3389
      8 N8         49.3050   27.7450   15.5810 N.pl3     1 HPF        -0.2993
      9 C9         48.1960   28.0580   14.6470 C.3       1 HPF         0.1607
     10 C10        48.5990   28.0510   13.1640 C.3       1 HPF         0.1288
     11 C11        47.4480   28.3470   12.2370 C.3       1 HPF         0.1087
     12 O12        47.9160   28.0600   10.8770 O.3       1 HPF        -0.2733
     13 P13        48.2440   29.3420    9.9520 P.3       1 HPF         0.2008
     14 O14        46.8860   30.2140    9.8770 O.co2     1 HPF        -0.5537
     15 O15        49.4720   30.1970   10.6130 O.co2     1 HPF        -0.5537
     16 O16        48.5940   28.7010    8.6560 O.co2     1 HPF        -0.5537
     17 O17        47.1100   27.1640   14.8710 O.3       1 HPF        -0.3684
     18 O18        49.5380   29.1630   13.0860 O.3       1 HPF        -0.3845
     19 H1         53.2836   25.5893   14.5874 H         1 HPF         0.0501
     20 H2         52.2023   23.2505   14.5818 H         1 HPF         0.0477
     21 H3         49.7259   23.1655   15.1076 H         1 HPF         0.0489
     22 H4         48.3687   25.2005   15.5461 H         1 HPF         0.0480
     23 H5         51.6288   28.4046   14.3978 H         1 HPF         0.2436
     24 H6         49.5219   28.3568   16.3807 H         1 HPF         0.1747
     25 H7         47.8508   29.0755   14.8824 H         1 HPF         0.0881
     26 H8         49.0670   27.0948   12.8873 H         1 HPF         0.0667
     27 H9         47.1554   29.4040   12.3218 H         1 HPF         0.0640
     28 H10        46.5880   27.7074   12.4845 H         1 HPF         0.0640
     29 H11        46.4032   27.3693   14.2703 H         1 HPF         0.2122
     30 H12        49.8497   29.2507   12.1929 H         1 HPF         0.2101
@<TRIPOS>BOND
     1    1    2 ar 
     2    1    6 ar 
     3    2    3 ar 
     4    3    4 ar 
     5    4    5 ar 
     6    5    6 ar 
     7    5    8 1  
     8    6    7 1  
     9    8    9 1  
    10    9   10 1  
    11    9   17 1  
    12   10   11 1  
    13   10   18 1  
    14   11   12 1  
    15   12   13 1  
    16   13   14 ar 
    17   13   15 ar 
    18   13   16 ar 
    19    1   19 1  
    20    2   20 1  
    21    3   21 1  
    22    4   22 1  
    23    7   23 1  
    24    8   24 1  
    25    9   25 1  
    26   10   26 1  
    27   11   27 1  
    28   11   28 1  
    29   17   29 1  
    30   18   30 1  
@<TRIPOS>SUBSTRUCTURE
     1 HPF         1

