### 
### Created by X-TOOL on Fri Sep 26 17:34:36 2014
### 

@<TRIPOS>MOLECULE
2cli_ligand
   31    31     1     0     0
SMALL
GAST_HUCK


@<TRIPOS>ATOM
      1 C1         50.8670   23.3970   15.0090 C.ar      1 F9F         0.1006
      2 C2         49.6770   23.3090   15.8670 C.ar      1 F9F        -0.0310
      3 C3         48.9080   24.5840   15.9470 C.ar      1 F9F        -0.0441
      4 C4         49.2410   25.7730   15.3120 C.ar      1 F9F         0.0969
      5 C5         50.4920   25.7890   14.4320 C.ar      1 F9F        -0.0441
      6 C6         51.2740   24.6020   14.3160 C.ar      1 F9F        -0.0310
      7 O7         51.7890   22.3450   14.7630 O.3       1 F9F        -0.2256
      8 C8         51.3560   20.9420   14.5680 C.3       1 F9F         0.5464
      9 F9F        52.3740   20.2670   14.0460 F         1 F9F        -0.1400
     10 F10        50.3800   20.8300   13.6300 F         1 F9F        -0.1400
     11 F11        50.9450   20.3080   15.6980 F         1 F9F        -0.1400
     12 S12        48.1940   27.2170   15.5520 S.o2      1 F9F         0.0634
     13 N13        48.7980   28.5920   14.7060 N.am      1 F9F        -0.2461
     14 C14        48.9810   28.4750   13.2410 C.3       1 F9F         0.0542
     15 C15        47.8140   28.9640   12.5750 C.3       1 F9F         0.0951
     16 O16        47.7940   28.4390   11.2590 O.3       1 F9F        -0.2745
     17 P17        48.0480   29.4660   10.0210 P.3       1 F9F         0.2007
     18 O18        49.2120   30.3470   10.3130 O.co2     1 F9F        -0.5537
     19 O19        48.2890   28.6460    8.8260 O.co2     1 F9F        -0.5537
     20 O20        46.8070   30.2620    9.8870 O.co2     1 F9F        -0.5537
     21 O21        48.0870   27.4380   17.0120 O.2       1 F9F        -0.1517
     22 O22        46.8790   26.9040   14.9320 O.2       1 F9F        -0.1517
     23 H1         49.3867   22.4053   16.3906 H         1 F9F         0.0542
     24 H2         48.0101   24.5825   16.5543 H         1 F9F         0.0608
     25 H3         50.7803   26.6905   13.9036 H         1 F9F         0.0608
     26 H4         52.1725   24.6016   13.7095 H         1 F9F         0.0542
     27 H5         49.0175   29.4402   15.1882 H         1 F9F         0.1672
     28 H6         49.1404   27.4198   12.9744 H         1 F9F         0.0501
     29 H7         49.8549   29.0673   12.9320 H         1 F9F         0.0501
     30 H8         47.8423   30.0629   12.5356 H         1 F9F         0.0628
     31 H9         46.9138   28.6396   13.1176 H         1 F9F         0.0628
@<TRIPOS>BOND
     1    1    2 ar 
     2    1    6 ar 
     3    1    7 1  
     4    2    3 ar 
     5    3    4 ar 
     6    4    5 ar 
     7    4   12 1  
     8    5    6 ar 
     9    7    8 1  
    10    8    9 1  
    11    8   10 1  
    12    8   11 1  
    13   12   13 am 
    14   12   21 2  
    15   12   22 2  
    16   13   14 1  
    17   14   15 1  
    18   15   16 1  
    19   16   17 1  
    20   17   18 ar 
    21   17   19 ar 
    22   17   20 ar 
    23    2   23 1  
    24    3   24 1  
    25    5   25 1  
    26    6   26 1  
    27   13   27 1  
    28   14   28 1  
    29   14   29 1  
    30   15   30 1  
    31   15   31 1  
@<TRIPOS>SUBSTRUCTURE
     1 F9F         1

