### 
### Created by X-TOOL on Sun Nov 13 14:28:25 2016
### 

@<TRIPOS>MOLECULE
5ahw_ligand
   33    36     1     0     0
SMALL
GAST_HUCK


@<TRIPOS>ATOM
      1 P          -6.6840   -6.9490   20.1540 P.3       1 CMP         0.2557
      2 O1P        -6.1010   -5.6650   20.6660 O.co2     1 CMP        -0.6177
      3 O2P        -8.1180   -7.1850   20.0430 O.co2     1 CMP        -0.6177
      4 O5'        -6.2750   -8.0940   21.2060 O.3       1 CMP        -0.2514
      5 C5'        -6.1680   -9.4470   20.8610 C.3       1 CMP         0.1128
      6 C4'        -5.3130   -9.5050   19.6050 C.3       1 CMP         0.1242
      7 O4'        -5.1930  -10.7850   19.0620 O.3       1 CMP        -0.3360
      8 C3'        -5.9380   -8.6960   18.4740 C.3       1 CMP         0.1540
      9 O3'        -5.7940   -7.3550   18.8700 O.3       1 CMP        -0.2453
     10 C2'        -5.1930   -9.2360   17.2810 C.3       1 CMP         0.1439
     11 O2'        -3.9120   -8.6890   17.1150 O.3       1 CMP        -0.3832
     12 C1'        -5.1170  -10.7300   17.6290 C.3       1 CMP         0.2014
     13 N9         -6.2580  -11.4520   17.0100 N.pl3     1 CMP        -0.1919
     14 C8         -7.3890  -11.8500   17.5630 C.2       1 CMP         0.1123
     15 N7         -8.1820  -12.4630   16.6410 N.2       1 CMP        -0.2958
     16 C5         -7.5490  -12.4370   15.4660 C.ar      1 CMP         0.1045
     17 C6         -7.7870  -12.8270   14.0350 C.ar      1 CMP         0.1298
     18 N6         -8.8790  -13.4500   13.6380 N.pl3     1 CMP        -0.3152
     19 N1         -6.8690  -12.5700   13.1090 N.ar      1 CMP        -0.2698
     20 C2         -5.7140  -12.0010   13.4310 C.ar      1 CMP         0.0533
     21 N3         -5.4530  -11.5610   14.6730 N.ar      1 CMP        -0.2714
     22 C4         -6.3090  -11.7530   15.7150 C.ar      1 CMP         0.1613
     23 H1         -7.1644   -9.8687   20.6624 H         1 CMP         0.0647
     24 H2         -5.6871  -10.0099   21.6745 H         1 CMP         0.0647
     25 H3         -4.3156   -9.1107   19.8494 H         1 CMP         0.0655
     26 H4         -7.0106   -8.9067   18.3509 H         1 CMP         0.0712
     27 H5         -5.7686   -9.0715   16.3582 H         1 CMP         0.0680
     28 H6         -3.5021   -9.0723   16.3485 H         1 CMP         0.2101
     29 H7         -4.1703  -11.1646   17.2758 H         1 CMP         0.0996
     30 H8         -7.6512  -11.7079   18.6104 H         1 CMP         0.1349
     31 H9         -8.9986  -13.6977   12.6454 H         1 CMP         0.1820
     32 H10        -9.6125  -13.6890   14.3204 H         1 CMP         0.1820
     33 H11        -4.9551  -11.8874   12.6653 H         1 CMP         0.0996
@<TRIPOS>BOND
     1    1    2 ar 
     2    1    3 ar 
     3    1    4 1  
     4    1    9 1  
     5    4    5 1  
     6    5    6 1  
     7    6    7 1  
     8    6    8 1  
     9    7   12 1  
    10    8    9 1  
    11    8   10 1  
    12   10   11 1  
    13   10   12 1  
    14   12   13 1  
    15   13   14 1  
    16   13   22 1  
    17   14   15 2  
    18   15   16 1  
    19   16   17 ar 
    20   16   22 ar 
    21   17   18 1  
    22   17   19 ar 
    23   19   20 ar 
    24   20   21 ar 
    25   21   22 ar 
    26    5   23 1  
    27    5   24 1  
    28    6   25 1  
    29    8   26 1  
    30   10   27 1  
    31   11   28 1  
    32   12   29 1  
    33   14   30 1  
    34   18   31 1  
    35   18   32 1  
    36   20   33 1  
@<TRIPOS>SUBSTRUCTURE
     1 CMP         1

