### 
### Created by X-TOOL on Fri Sep 26 17:34:33 2014
### 

@<TRIPOS>MOLECULE
1zvx_ligand
   46    47     1     0     0
SMALL
GAST_HUCK


@<TRIPOS>ATOM
      1 C14        -1.1900   22.3760    5.5780 C.ar      1 FIN        -0.0279
      2 C15        -0.2200   21.2840    5.5370 C.ar      1 FIN        -0.0616
      3 C16         0.1980   20.7060    4.2360 C.ar      1 FIN        -0.0312
      4 C17        -0.3690   21.2300    2.9850 C.ar      1 FIN         0.0926
      5 C1         -1.3300   22.3140    3.0300 C.ar      1 FIN        -0.0312
      6 C2         -1.7470   22.8920    4.3240 C.ar      1 FIN        -0.0616
      7 O1          0.0160   20.6800    1.6880 O.3       1 FIN        -0.3200
      8 C3          0.6930   19.4200    1.5690 C.3       1 FIN         0.0599
      9 C4         -1.6310   22.9410    6.8970 C.ar      1 FIN        -0.0246
     10 C5         -0.8140   22.7560    8.1060 C.ar      1 FIN        -0.0548
     11 C6         -1.2770   23.2820    9.3780 C.ar      1 FIN        -0.0363
     12 C7         -2.5740   24.0070    9.4550 C.ar      1 FIN         0.1067
     13 C8         -3.3680   24.2050    8.2630 C.ar      1 FIN        -0.0363
     14 C9         -2.9180   23.6810    6.9950 C.ar      1 FIN        -0.0548
     15 S1         -3.1450   24.6220   11.0000 S.o2      1 FIN         0.0690
     16 O2         -4.5850   24.6930   10.8850 O.2       1 FIN        -0.1504
     17 O3         -2.6490   23.6950   11.9740 O.2       1 FIN        -0.1504
     18 N1         -2.6120   26.1290   11.3960 N.am      1 FIN        -0.2283
     19 C10        -3.1340   27.2710   10.8750 C.3       1 FIN         0.1104
     20 C11        -3.7190   28.1300   12.0500 C.3       1 FIN        -0.0116
     21 C12        -4.9370   27.5370   12.6770 C.3       1 FIN        -0.0596
     22 C13        -2.7510   28.4510   13.2100 C.3       1 FIN        -0.0596
     23 P1         -1.8220   28.0970   10.0800 P.3       1 FIN         0.0804
     24 O4         -2.1310   29.5680    9.9040 O.co2     1 FIN        -0.5610
     25 O5         -0.5650   27.9580   10.8700 O.co2     1 FIN        -0.5610
     26 O6         -1.6540   27.4670    8.8220 O.co2     1 FIN        -0.5610
     27 H1          0.1954   20.8951    6.4596 H         1 FIN         0.0601
     28 H2          0.9205   19.8984    4.2080 H         1 FIN         0.0548
     29 H3         -1.7457   22.7034    2.1077 H         1 FIN         0.0548
     30 H4         -2.4680   23.7012    4.3463 H         1 FIN         0.0601
     31 H5          0.8834   19.2049    0.5072 H         1 FIN         0.0579
     32 H6          0.0654   18.6246    1.9974 H         1 FIN         0.0579
     33 H7          1.6490   19.4648    2.1112 H         1 FIN         0.0579
     34 H8          0.1312   22.2285    8.0477 H         1 FIN         0.0609
     35 H9         -0.6778   23.1465   10.2711 H         1 FIN         0.0633
     36 H10        -4.3041   24.7485    8.3214 H         1 FIN         0.0633
     37 H11        -3.5227   23.8279    6.1074 H         1 FIN         0.0609
     38 H12        -1.8642   26.2083   12.0551 H         1 FIN         0.1692
     39 H13        -3.9297   27.0403   10.1514 H         1 FIN         0.0706
     40 H14        -4.0111   29.0896   11.5986 H         1 FIN         0.0328
     41 H15        -5.2876   28.1919   13.4883 H         1 FIN         0.0233
     42 H16        -4.6932   26.5454   13.0858 H         1 FIN         0.0233
     43 H17        -5.7278   27.4368   11.9190 H         1 FIN         0.0233
     44 H18        -1.8286   28.8937   12.8060 H         1 FIN         0.0233
     45 H19        -2.5068   27.5248   13.7508 H         1 FIN         0.0233
     46 H20        -3.2281   29.1632   13.8993 H         1 FIN         0.0233
@<TRIPOS>BOND
     1    1    2 ar 
     2    1    6 ar 
     3    1    9 1  
     4    2    3 ar 
     5    3    4 ar 
     6    4    5 ar 
     7    4    7 1  
     8    5    6 ar 
     9    7    8 1  
    10    9   10 ar 
    11    9   14 ar 
    12   10   11 ar 
    13   11   12 ar 
    14   12   13 ar 
    15   12   15 1  
    16   13   14 ar 
    17   15   16 2  
    18   15   17 2  
    19   15   18 am 
    20   18   19 1  
    21   19   20 1  
    22   19   23 1  
    23   20   21 1  
    24   20   22 1  
    25   23   24 ar 
    26   23   25 ar 
    27   23   26 ar 
    28    2   27 1  
    29    3   28 1  
    30    5   29 1  
    31    6   30 1  
    32    8   31 1  
    33    8   32 1  
    34    8   33 1  
    35   10   34 1  
    36   11   35 1  
    37   13   36 1  
    38   14   37 1  
    39   18   38 1  
    40   19   39 1  
    41   20   40 1  
    42   21   41 1  
    43   21   42 1  
    44   21   43 1  
    45   22   44 1  
    46   22   45 1  
    47   22   46 1  
@<TRIPOS>SUBSTRUCTURE
     1 FIN         1

