### 
### Created by X-TOOL on Fri Sep 26 17:34:53 2014
### 

@<TRIPOS>MOLECULE
3ta0_ligand
   43    45     1     0     0
SMALL
GAST_HUCK


@<TRIPOS>ATOM
      1 PG        -57.7280  -16.6320  -15.4520 P.3       1 ATP         0.1879
      2 O1G       -58.2010  -16.0980  -14.0800 O.co2     1 ATP        -0.6091
      3 O2G       -56.1890  -16.5250  -15.4880 O.co2     1 ATP        -0.6091
      4 O3G       -58.1390  -18.0420  -15.7170 O.co2     1 ATP        -0.6091
      5 PB        -58.9860  -14.5780  -17.0300 P.3       1 ATP         0.3553
      6 O1B       -60.3390  -14.8180  -16.3440 O.co2     1 ATP        -0.5652
      7 O2B       -59.6020  -14.5910  -18.4230 O.co2     1 ATP        -0.5652
      8 O3B       -58.1100  -15.8580  -16.7680 O.3       1 ATP        -0.1546
      9 PA        -57.2060  -12.8850  -15.7380 P.3       1 ATP         0.3266
     10 O1A       -57.2900  -13.2740  -14.2700 O.co2     1 ATP        -0.5692
     11 O2A       -56.1310  -13.8010  -16.3900 O.co2     1 ATP        -0.5692
     12 O3A       -58.5190  -13.1720  -16.4930 O.3       1 ATP        -0.1171
     13 O5'       -56.8100  -11.3260  -16.0130 O.3       1 ATP        -0.2441
     14 C5'       -57.0340  -10.3010  -15.0610 C.3       1 ATP         0.1131
     15 C4'       -56.3150   -9.0200  -15.5250 C.3       1 ATP         0.1189
     16 O4'       -54.8890   -9.2240  -15.5190 O.3       1 ATP        -0.3364
     17 C3'       -56.6550   -8.6000  -16.9420 C.3       1 ATP         0.1149
     18 O3'       -57.8780   -7.9290  -17.0350 O.3       1 ATP        -0.3864
     19 C2'       -55.4570   -7.7520  -17.3840 C.3       1 ATP         0.1385
     20 O2'       -55.5460   -6.4160  -16.8460 O.3       1 ATP        -0.3836
     21 C1'       -54.3440   -8.5450  -16.7130 C.3       1 ATP         0.2010
     22 N9        -53.6640   -9.5080  -17.5430 N.pl3     1 ATP        -0.1919
     23 C8        -53.9830  -10.8250  -17.7140 C.2       1 ATP         0.1123
     24 N7        -53.1530  -11.4470  -18.5180 N.2       1 ATP        -0.2958
     25 C5        -52.2430  -10.5040  -18.8920 C.ar      1 ATP         0.1045
     26 C6        -51.1000  -10.5500  -19.7370 C.ar      1 ATP         0.1298
     27 N6        -50.7080  -11.7050  -20.3640 N.pl3     1 ATP        -0.3152
     28 N1        -50.3630   -9.3850  -19.9080 N.ar      1 ATP        -0.2698
     29 C2        -50.7730   -8.2340  -19.2780 C.ar      1 ATP         0.0533
     30 N3        -51.8520   -8.0830  -18.4410 N.ar      1 ATP        -0.2714
     31 C4        -52.5440   -9.2550  -18.2930 C.ar      1 ATP         0.1613
     32 H1        -56.6379  -10.6127  -14.0833 H         1 ATP         0.0648
     33 H2        -58.1134  -10.1074  -14.9745 H         1 ATP         0.0648
     34 H3        -56.5809   -8.2065  -14.8340 H         1 ATP         0.0651
     35 H4        -56.7194   -9.4939  -17.5798 H         1 ATP         0.0648
     36 H5        -57.8489   -7.1443  -16.5002 H         1 ATP         0.2100
     37 H6        -55.3465   -7.7139  -18.4778 H         1 ATP         0.0676
     38 H7        -56.3438   -6.0036  -17.1557 H         1 ATP         0.2101
     39 H8        -53.5875   -7.8185  -16.3816 H         1 ATP         0.0996
     40 H9        -54.8341  -11.3068  -17.2350 H         1 ATP         0.1349
     41 H10       -49.8750  -11.7049  -20.9699 H         1 ATP         0.1820
     42 H11       -51.2466  -12.5726  -20.2291 H         1 ATP         0.1820
     43 H12       -50.1786   -7.3464  -19.4622 H         1 ATP         0.0996
@<TRIPOS>BOND
     1    1    2 ar 
     2    1    3 ar 
     3    1    4 ar 
     4    8    1 1  
     5    5    6 ar 
     6    5    7 ar 
     7    5    8 1  
     8   12    5 1  
     9    9   10 ar 
    10    9   11 ar 
    11    9   12 1  
    12    9   13 1  
    13   13   14 1  
    14   14   15 1  
    15   15   16 1  
    16   15   17 1  
    17   16   21 1  
    18   17   18 1  
    19   17   19 1  
    20   19   20 1  
    21   19   21 1  
    22   21   22 1  
    23   22   23 1  
    24   22   31 1  
    25   23   24 2  
    26   24   25 1  
    27   25   26 ar 
    28   25   31 ar 
    29   26   27 1  
    30   26   28 ar 
    31   28   29 ar 
    32   29   30 ar 
    33   30   31 ar 
    34   14   32 1  
    35   14   33 1  
    36   15   34 1  
    37   17   35 1  
    38   18   36 1  
    39   19   37 1  
    40   20   38 1  
    41   21   39 1  
    42   23   40 1  
    43   27   41 1  
    44   27   42 1  
    45   29   43 1  
@<TRIPOS>SUBSTRUCTURE
     1 ATP         1

