### 
### Created by X-TOOL on Sun Nov 13 14:27:14 2016
### 

@<TRIPOS>MOLECULE
4zeb_ligand
   66    68     1     0     0
SMALL
GAST_HUCK


@<TRIPOS>ATOM
      1 O2         33.0760   28.9000   36.0110 O.3       1 AGR        -0.3841
      2 C2         32.5830   27.7640   36.7000 C.3       1 AGR         0.1342
      3 C3         33.4570   27.3070   37.8500 C.3       1 AGR         0.1141
      4 O3         34.5700   28.2100   38.0730 O.3       1 AGR        -0.3864
      5 C4         33.9000   25.9260   37.8670 C.3       1 AGR         0.1119
      6 O4         34.6430   25.5790   39.0620 O.3       1 AGR        -0.3865
      7 C5         32.9850   24.8700   37.2740 C.3       1 AGR         0.1130
      8 C6         32.4540   23.8380   38.1590 C.3       1 AGR         0.0730
      9 O6         31.2740   24.0890   38.8560 O.3       1 AGR        -0.3924
     10 O5         31.8560   25.4720   36.4590 O.3       1 AGR        -0.3404
     11 C1         32.1450   26.6590   35.7490 C.3       1 AGR         0.1912
     12 O1         33.1240   26.3910   34.7520 O.3       1 AGR        -0.3125
     13 CBH        32.7330   26.1980   33.3510 C.3       1 AGR         0.2256
     14 CAO        32.5150   27.5460   32.6830 C.3       1 AGR         0.1009
     15 OAD        33.2620   28.6250   33.1680 O.3       1 AGR        -0.3896
     16 CBD        33.8890   25.4810   32.6850 C.3       1 AGR         0.1448
     17 OAK        35.1630   25.9260   33.0940 O.3       1 AGR        -0.3833
     18 OAR        31.6650   25.3030   33.1690 O.3       1 AGR        -0.3358
     19 CBC        32.1840   24.0230   32.9150 C.3       1 AGR         0.1188
     20 CAN        31.6780   23.0480   33.9190 C.3       1 AGR         0.0734
     21 OAC        30.2910   22.8660   33.8900 O.3       1 AGR        -0.3924
     22 CBG        33.6590   24.1390   32.9960 C.3       1 AGR         0.1535
     23 OAU        34.2200   23.3090   31.9760 O.3       1 AGR        -0.2453
     24 O15        36.2780   22.2170   30.9970 O.co2     1 AGR        -0.6177
     25 P1         35.3690   22.1880   32.1940 P.3       1 AGR         0.2561
     26 OAL        36.1500   22.4360   33.4430 O.co2     1 AGR        -0.6177
     27 OBA        34.6340   20.7850   32.3540 O.3       1 AGR        -0.2430
     28 CBO        34.2580   19.8840   31.2770 C.3       1 AGR         0.1728
     29 CBM        32.8330   19.6390   31.3250 C.3       1 AGR         0.1191
     30 O14        32.0520   20.8620   31.0900 O.3       1 AGR        -0.3860
     31 CBL        32.3440   18.5840   30.4940 C.3       1 AGR         0.1073
     32 O10        32.5190   18.8820   29.0880 O.3       1 AGR        -0.3868
     33 CBN        33.1310   17.3100   30.7400 C.3       1 AGR         0.0792
     34 OAX        34.5300   17.5370   30.6050 O.3       1 AGR        -0.3459
     35 C8         35.0360   18.5850   31.4240 C.3       1 AGR         0.1905
     36 OAH        36.3770   18.7440   31.1660 O.3       1 AGR        -0.3646
     37 H1         32.4788   29.1263   35.3077 H         1 AGR         0.2101
     38 H2         31.6543   28.1051   37.1808 H         1 AGR         0.0671
     39 H3         32.8127   27.4011   38.7366 H         1 AGR         0.0648
     40 H4         35.0938   27.8920   38.7990 H         1 AGR         0.2100
     41 H5         34.6989   25.9459   37.1111 H         1 AGR         0.0647
     42 H6         34.0939   25.7140   39.8254 H         1 AGR         0.2100
     43 H7         33.6214   24.3286   36.5585 H         1 AGR         0.0647
     44 H8         33.2312   23.6236   38.9073 H         1 AGR         0.0584
     45 H9         32.2808   22.9430   37.5434 H         1 AGR         0.0584
     46 H10        31.0540   23.3325   39.3868 H         1 AGR         0.2095
     47 H11        31.2265   26.9931   35.2444 H         1 AGR         0.0939
     48 H12        31.4512   27.8028   32.7939 H         1 AGR         0.0612
     49 H13        32.7549   27.4298   31.6158 H         1 AGR         0.0612
     50 H14        33.0617   28.7599   34.0868 H         1 AGR         0.2096
     51 H15        33.8246   25.6230   31.5961 H         1 AGR         0.0679
     52 H16        35.2548   26.8495   32.8911 H         1 AGR         0.2101
     53 H17        31.8890   23.6910   31.9087 H         1 AGR         0.0651
     54 H18        31.9585   23.4064   34.9204 H         1 AGR         0.0584
     55 H19        32.1579   22.0765   33.7295 H         1 AGR         0.0584
     56 H20        30.0326   22.5459   33.0337 H         1 AGR         0.2095
     57 H21        34.0494   23.8697   33.9885 H         1 AGR         0.0712
     58 H22        34.5090   20.3462   30.3109 H         1 AGR         0.0735
     59 H23        32.6255   19.3267   32.3591 H         1 AGR         0.0652
     60 H24        31.1252   20.6571   31.1300 H         1 AGR         0.2100
     61 H25        31.2784   18.4209   30.7129 H         1 AGR         0.0643
     62 H26        32.1836   18.1608   28.5685 H         1 AGR         0.2100
     63 H27        32.8187   16.5484   30.0104 H         1 AGR         0.0587
     64 H28        32.9222   16.9498   31.7582 H         1 AGR         0.0587
     65 H29        34.9325   18.2672   32.4720 H         1 AGR         0.0940
     66 H30        36.8340   17.9343   31.3609 H         1 AGR         0.2126
@<TRIPOS>BOND
     1    1    2 1  
     2    2    3 1  
     3    2   11 1  
     4    3    4 1  
     5    3    5 1  
     6    5    6 1  
     7    5    7 1  
     8    7    8 1  
     9    7   10 1  
    10    8    9 1  
    11   10   11 1  
    12   11   12 1  
    13   12   13 1  
    14   13   14 1  
    15   13   16 1  
    16   13   18 1  
    17   14   15 1  
    18   16   17 1  
    19   16   22 1  
    20   18   19 1  
    21   19   20 1  
    22   19   22 1  
    23   20   21 1  
    24   22   23 1  
    25   23   25 1  
    26   25   24 ar 
    27   25   26 ar 
    28   25   27 1  
    29   27   28 1  
    30   28   29 1  
    31   28   35 1  
    32   29   30 1  
    33   29   31 1  
    34   31   32 1  
    35   31   33 1  
    36   33   34 1  
    37   34   35 1  
    38   35   36 1  
    39    1   37 1  
    40    2   38 1  
    41    3   39 1  
    42    4   40 1  
    43    5   41 1  
    44    6   42 1  
    45    7   43 1  
    46    8   44 1  
    47    8   45 1  
    48    9   46 1  
    49   11   47 1  
    50   14   48 1  
    51   14   49 1  
    52   15   50 1  
    53   16   51 1  
    54   17   52 1  
    55   19   53 1  
    56   20   54 1  
    57   20   55 1  
    58   21   56 1  
    59   22   57 1  
    60   28   58 1  
    61   29   59 1  
    62   30   60 1  
    63   31   61 1  
    64   32   62 1  
    65   33   63 1  
    66   33   64 1  
    67   35   65 1  
    68   36   66 1  
@<TRIPOS>SUBSTRUCTURE
     1 AGR         1

