### 
### Created by X-TOOL on Fri Sep 26 17:34:45 2014
### 

@<TRIPOS>MOLECULE
3h89_ligand
  152   157     1     0     0
SMALL
GAST_HUCK


@<TRIPOS>ATOM
      1 C1         30.5470   -3.6070  -10.1640 C.3       1 NSX         0.0467
      2 C2         29.5170   -3.8940   -9.2920 C.2       1 NSX         0.1803
      3 O3         28.9320   -3.0160   -8.7110 O.2       1 NSX        -0.3967
      4 C4         28.4970   -3.8070  -14.2010 C.3       1 NSX        -0.0150
      5 C5         29.2850   -2.5480  -13.7070 C.2       1 NSX        -0.0932
      6 C6         29.9200   -2.5200  -12.4070 C.2       1 NSX        -0.0930
      7 C7         29.8290   -3.7460  -11.4950 C.3       1 NSX        -0.0075
      8 C8         29.0310   -5.0550  -11.9270 C.3       1 NSX        -0.0396
      9 C9         28.3900   -5.0250  -13.2810 C.3       1 NSX        -0.0399
     10 C10        26.7810   -3.3810  -18.3810 C.3       1 NSX        -0.0363
     11 C11        26.9570   -4.8920  -16.1250 C.3       1 NSX        -0.0402
     12 C12        27.8700   -3.7740  -15.5490 C.3       1 NSX        -0.0151
     13 C13        26.4450   -4.6200  -17.5520 C.3       1 NSX        -0.0445
     14 C14        28.2390   -2.4420  -16.4230 C.2       1 NSX        -0.0936
     15 C15        27.6940   -2.2800  -17.7760 C.2       1 NSX        -0.0982
     16 N16        29.2390   -5.3290   -9.1710 N.am      1 NSX        -0.2640
     17 C17        28.2860   -5.9600   -8.3720 C.3       1 NSX         0.1373
     18 C18        29.1650   -7.0890   -7.9310 C.2       1 NSX         0.2057
     19 O19        30.2060   -7.5130   -8.6260 O.2       1 NSX        -0.3942
     20 C20        27.2100   -6.4620   -9.2520 C.3       1 NSX         0.0043
     21 C22        23.5710   -7.6070  -14.9110 C.3       1 NSX         0.0676
     22 C23        23.6050   -7.1340  -16.1600 C.ar      1 NSX        -0.0306
     23 C24        23.2990   -5.6850  -16.4750 C.ar      1 NSX        -0.0639
     24 C25        23.9170   -8.0610  -17.3400 C.ar      1 NSX        -0.0639
     25 C26        23.3170   -5.0980  -17.8360 C.ar      1 NSX        -0.0636
     26 C27        23.9340   -7.4930  -18.7410 C.ar      1 NSX        -0.0636
     27 C28        23.6050   -5.9670  -19.0290 C.ar      1 NSX        -0.0328
     28 N29        28.7530   -7.6320   -6.6120 N.am      1 NSX        -0.2636
     29 C30        29.4490   -8.6840   -5.9570 C.3       1 NSX         0.1311
     30 C31        29.3680  -10.0990   -6.8160 C.3       1 NSX        -0.0092
     31 C32        28.0570  -10.5490   -7.6210 C.3       1 NSX        -0.0156
     32 C33        27.7370  -12.0690   -7.5510 C.3       1 NSX         0.0627
     33 N34        26.5490  -12.6270   -8.2440 N.pl3     1 NSX        -0.2723
     34 C35        25.2480  -12.8340   -7.5640 C.cat     1 NSX         0.2882
     35 N36        25.1290  -13.1080   -6.2180 N.pl3     1 NSX        -0.2849
     36 N37        24.0320  -12.7690   -8.2170 N.pl3     1 NSX        -0.2849
     37 C38        28.8890   -9.0670   -4.6820 C.2       1 NSX         0.2039
     38 O39        29.6660   -9.5080   -3.7900 O.2       1 NSX        -0.3944
     39 N40        27.5720   -8.9400   -4.5820 N.am      1 NSX        -0.2635
     40 C41        26.8100   -9.3010   -3.4310 C.3       1 NSX         0.1336
     41 C42        26.5650  -10.8380   -3.6560 C.2       1 NSX         0.2019
     42 O43        26.1400  -11.2590   -4.7180 O.2       1 NSX        -0.3945
     43 C44        25.4250   -8.5790   -3.3250 C.3       1 NSX         0.0042
     44 C45        24.7130   -9.1140   -2.0270 C.3       1 NSX         0.0036
     45 C46        25.0760   -8.5480   -0.6630 C.3       1 NSX        -0.0217
     46 C47        23.6130  -10.2780   -2.1430 C.2       1 NSX        -0.0565
     47 C48        24.3940   -9.0940    0.5700 C.3       1 NSX         0.0191
     48 C49        22.9660  -10.7870   -0.9140 C.2       1 NSX        -0.0196
     49 C50        23.3370  -10.2220    0.4280 C.2       1 NSX         0.1042
     50 O51        22.7490  -10.7000    1.4990 O.2       1 NSX        -0.3964
     51 C52        29.0780  -13.8470   -2.2000 C.3       1 NSX        -0.0392
     52 C53        29.0100  -14.2380   -0.6250 C.3       1 NSX        -0.0501
     53 C54        30.3490  -14.2830    0.1350 C.3       1 NSX        -0.0528
     54 C55        31.6370  -13.9730   -0.5920 C.3       1 NSX        -0.0530
     55 C56        31.6570  -13.6150   -2.0590 C.3       1 NSX        -0.0528
     56 C57        30.3920  -13.5460   -2.8770 C.3       1 NSX        -0.0501
     57 C58        27.9170  -13.7670   -3.0290 C.3       1 NSX        -0.0299
     58 C59        26.6500  -13.1950   -2.6130 C.3       1 NSX         0.0312
     59 N60        26.8780  -11.6780   -2.4820 N.am      1 NSX        -0.2850
     60 C62        23.6150   -5.3550  -20.3260 C.3       1 NSX         0.0235
     61 C63        23.3270   -3.8300  -20.5120 C.3       1 NSX        -0.0064
     62 C64        23.8640   -6.1440  -21.6250 C.2       1 NSX        -0.0722
     63 C65        23.3220   -3.1830  -21.8960 C.2       1 NSX        -0.0826
     64 C66        23.8490   -5.4890  -22.9580 C.2       1 NSX        -0.0883
     65 C67        23.5860   -4.0340  -23.0890 C.2       1 NSX        -0.0896
     66 C68        24.4630   -7.2990  -13.8830 C.2       1 NSX         0.1881
     67 C69        25.7620   -5.9570   -9.3450 C.2       1 NSX        -0.0923
     68 C70        24.9620   -5.9330  -10.3590 C.2       1 NSX        -0.0766
     69 C71        25.2720   -6.4360  -11.7830 C.3       1 NSX         0.0479
     70 N72        24.1210   -6.6540  -12.8130 N.am      1 NSX        -0.2775
     71 O73        25.4660   -7.7030  -14.1310 O.2       1 NSX        -0.3942
     72 H1         31.3717   -4.3288  -10.0701 H         1 NSX         0.0525
     73 H2         30.9330   -2.5878  -10.0153 H         1 NSX         0.0525
     74 H3         29.4156   -4.2231  -14.6403 H         1 NSX         0.0445
     75 H4         29.3568   -1.6755  -14.3547 H         1 NSX         0.0454
     76 H5         30.4592   -1.6323  -12.0796 H         1 NSX         0.0454
     77 H6         30.7361   -4.1705  -11.9499 H         1 NSX         0.0448
     78 H7         28.2375   -5.2242  -11.1843 H         1 NSX         0.0290
     79 H8         29.7364   -5.8989  -11.9088 H         1 NSX         0.0290
     80 H9         28.8130   -5.8721  -13.8409 H         1 NSX         0.0291
     81 H10        27.3155   -5.1938  -13.1169 H         1 NSX         0.0291
     82 H11        25.8260   -2.8992  -18.6376 H         1 NSX         0.0388
     83 H12        27.2719   -3.7343  -19.2997 H         1 NSX         0.0388
     84 H13        26.0863   -5.0016  -15.4617 H         1 NSX         0.0290
     85 H14        27.5290   -5.8315  -16.1375 H         1 NSX         0.0290
     86 H15        26.9775   -3.2832  -15.1336 H         1 NSX         0.0445
     87 H16        26.7836   -5.4764  -18.1535 H         1 NSX         0.0286
     88 H17        25.3476   -4.6349  -17.4779 H         1 NSX         0.0286
     89 H18        28.8884   -1.6761  -16.0016 H         1 NSX         0.0454
     90 H19        27.9296   -1.3884  -18.3553 H         1 NSX         0.0450
     91 H20        29.8051   -5.9319   -9.7332 H         1 NSX         0.1884
     92 H21        27.8921   -5.3446   -7.5498 H         1 NSX         0.0821
     93 H22        27.1190   -7.5294   -9.0025 H         1 NSX         0.0435
     94 H23        27.6096   -6.3565  -10.2714 H         1 NSX         0.0435
     95 H24        23.6241   -8.7005  -15.0177 H         1 NSX         0.0647
     96 H25        22.5807   -7.3239  -14.5248 H         1 NSX         0.0647
     97 H26        23.0493   -5.0311  -15.6473 H         1 NSX         0.0545
     98 H27        24.1231   -9.1119  -17.1720 H         1 NSX         0.0545
     99 H28        23.1222   -4.0403  -17.9716 H         1 NSX         0.0546
    100 H29        24.1775   -8.1457  -19.5716 H         1 NSX         0.0546
    101 H30        27.9495   -7.2398   -6.1642 H         1 NSX         0.1883
    102 H31        30.4958   -8.3720   -5.8274 H         1 NSX         0.0800
    103 H32        29.5748  -10.9046   -6.0962 H         1 NSX         0.0313
    104 H33        30.1794  -10.0523   -7.5572 H         1 NSX         0.0313
    105 H34        28.1944  -10.2769   -8.6779 H         1 NSX         0.0301
    106 H35        27.1976   -9.9994   -7.2096 H         1 NSX         0.0301
    107 H36        27.6242  -12.3174   -6.4854 H         1 NSX         0.0689
    108 H37        28.6136  -12.5935   -7.9590 H         1 NSX         0.0689
    109 H38        26.6319  -12.8810   -9.2387 H         1 NSX         0.2642
    110 H39        24.1972  -13.2425   -5.8002 H         1 NSX         0.2615
    111 H40        25.9719  -13.1782   -5.6302 H         1 NSX         0.2615
    112 H41        23.9998  -12.5699   -9.2271 H         1 NSX         0.2615
    113 H42        23.1577  -12.9197   -7.6937 H         1 NSX         0.2615
    114 H43        27.0795   -8.5654   -5.3676 H         1 NSX         0.1883
    115 H44        27.3872   -9.1132   -2.5136 H         1 NSX         0.0802
    116 H45        24.8134   -8.8071   -4.2104 H         1 NSX         0.0346
    117 H46        25.5726   -7.4914   -3.2516 H         1 NSX         0.0346
    118 H47        23.9275   -8.3521   -2.1386 H         1 NSX         0.0530
    119 H48        24.8631   -7.4693   -0.6962 H         1 NSX         0.0322
    120 H49        26.1564   -8.7045   -0.5279 H         1 NSX         0.0322
    121 H50        23.3462  -10.6882   -3.1159 H         1 NSX         0.0859
    122 H51        23.8920   -8.2461    1.0589 H         1 NSX         0.0479
    123 H52        25.1862   -9.4802    1.2282 H         1 NSX         0.0479
    124 H53        22.2173  -11.5749   -0.9821 H         1 NSX         0.0460
    125 H54        28.9627  -12.7878   -1.9264 H         1 NSX         0.0301
    126 H55        28.5497  -15.2341   -0.5484 H         1 NSX         0.0268
    127 H56        28.3678  -13.4979   -0.1252 H         1 NSX         0.0268
    128 H57        30.4501  -15.2999    0.5419 H         1 NSX         0.0265
    129 H58        30.2695  -13.5630    0.9628 H         1 NSX         0.0265
    130 H59        32.2751  -14.8623   -0.4825 H         1 NSX         0.0265
    131 H60        32.0949  -13.1254   -0.0611 H         1 NSX         0.0265
    132 H61        32.3020  -14.3587   -2.5498 H         1 NSX         0.0265
    133 H62        32.1242  -12.6216   -2.1283 H         1 NSX         0.0265
    134 H63        30.3224  -12.5253   -3.2812 H         1 NSX         0.0268
    135 H64        30.5018  -14.2617   -3.7051 H         1 NSX         0.0268
    136 H65        27.6917  -14.8025   -3.3239 H         1 NSX         0.0287
    137 H66        28.2247  -13.1921   -3.9149 H         1 NSX         0.0287
    138 H67        26.3413  -13.6179   -1.6456 H         1 NSX         0.0520
    139 H68        25.8751  -13.3992   -3.3665 H         1 NSX         0.0520
    140 H69        27.2248  -11.2766   -1.6343 H         1 NSX         0.1851
    141 H70        24.6924   -5.1611  -20.2182 H         1 NSX         0.0643
    142 H71        24.0868   -3.2962  -19.9224 H         1 NSX         0.0487
    143 H72        22.3322   -3.6468  -20.0799 H         1 NSX         0.0487
    144 H73        24.0568   -7.2141  -21.5644 H         1 NSX         0.0620
    145 H74        23.1286   -2.1172  -22.0081 H         1 NSX         0.0611
    146 H75        24.0334   -6.0842  -23.8511 H         1 NSX         0.0408
    147 H76        23.5861   -3.5793  -24.0785 H         1 NSX         0.0403
    148 H77        25.3487   -5.5605   -8.4188 H         1 NSX         0.0453
    149 H78        23.9701   -5.5160  -10.1913 H         1 NSX         0.0470
    150 H79        25.7826   -7.4039  -11.6713 H         1 NSX         0.0644
    151 H80        25.9625   -5.7067  -12.2316 H         1 NSX         0.0644
    152 H81        23.1906   -6.3214  -12.6591 H         1 NSX         0.1876
@<TRIPOS>BOND
     1    2    1 1  
     2    1    7 1  
     3    2    3 2  
     4   16    2 am 
     5    5    4 1  
     6    9    4 1  
     7    4   12 1  
     8    6    5 2  
     9    7    6 1  
    10    7    8 1  
    11    8    9 1  
    12   13   10 1  
    13   15   10 1  
    14   12   11 1  
    15   11   13 1  
    16   12   14 1  
    17   14   15 2  
    18   17   16 1  
    19   17   18 1  
    20   20   17 1  
    21   18   19 2  
    22   18   28 am 
    23   67   20 1  
    24   21   22 1  
    25   66   21 1  
    26   22   23 ar 
    27   22   24 ar 
    28   23   25 ar 
    29   24   26 ar 
    30   25   27 ar 
    31   26   27 ar 
    32   27   60 1  
    33   28   29 1  
    34   29   30 1  
    35   29   37 1  
    36   30   31 1  
    37   31   32 1  
    38   32   33 1  
    39   33   34 ar 
    40   34   35 ar 
    41   34   36 ar 
    42   37   38 2  
    43   37   39 am 
    44   39   40 1  
    45   40   41 1  
    46   40   43 1  
    47   41   42 2  
    48   41   59 am 
    49   43   44 1  
    50   44   45 1  
    51   44   46 1  
    52   45   47 1  
    53   46   48 2  
    54   47   49 1  
    55   48   49 1  
    56   49   50 2  
    57   51   52 1  
    58   51   56 1  
    59   57   51 1  
    60   52   53 1  
    61   53   54 1  
    62   55   54 1  
    63   56   55 1  
    64   58   57 1  
    65   59   58 1  
    66   60   61 1  
    67   60   62 1  
    68   61   63 1  
    69   62   64 2  
    70   63   65 2  
    71   64   65 1  
    72   70   66 am 
    73   66   71 2  
    74   68   67 2  
    75   69   68 1  
    76   69   70 1  
    77    1   72 1  
    78    1   73 1  
    79    4   74 1  
    80    5   75 1  
    81    6   76 1  
    82    7   77 1  
    83    8   78 1  
    84    8   79 1  
    85    9   80 1  
    86    9   81 1  
    87   10   82 1  
    88   10   83 1  
    89   11   84 1  
    90   11   85 1  
    91   12   86 1  
    92   13   87 1  
    93   13   88 1  
    94   14   89 1  
    95   15   90 1  
    96   16   91 1  
    97   17   92 1  
    98   20   93 1  
    99   20   94 1  
   100   21   95 1  
   101   21   96 1  
   102   23   97 1  
   103   24   98 1  
   104   25   99 1  
   105   26  100 1  
   106   28  101 1  
   107   29  102 1  
   108   30  103 1  
   109   30  104 1  
   110   31  105 1  
   111   31  106 1  
   112   32  107 1  
   113   32  108 1  
   114   33  109 1  
   115   35  110 1  
   116   35  111 1  
   117   36  112 1  
   118   36  113 1  
   119   39  114 1  
   120   40  115 1  
   121   43  116 1  
   122   43  117 1  
   123   44  118 1  
   124   45  119 1  
   125   45  120 1  
   126   46  121 1  
   127   47  122 1  
   128   47  123 1  
   129   48  124 1  
   130   51  125 1  
   131   52  126 1  
   132   52  127 1  
   133   53  128 1  
   134   53  129 1  
   135   54  130 1  
   136   54  131 1  
   137   55  132 1  
   138   55  133 1  
   139   56  134 1  
   140   56  135 1  
   141   57  136 1  
   142   57  137 1  
   143   58  138 1  
   144   58  139 1  
   145   59  140 1  
   146   60  141 1  
   147   61  142 1  
   148   61  143 1  
   149   62  144 1  
   150   63  145 1  
   151   64  146 1  
   152   65  147 1  
   153   67  148 1  
   154   68  149 1  
   155   69  150 1  
   156   69  151 1  
   157   70  152 1  
@<TRIPOS>SUBSTRUCTURE
     1 NSX         1

