### 
### Created by X-TOOL on Fri Sep 26 17:34:39 2014
### 

@<TRIPOS>MOLECULE
2r75_ligand
   58    61     1     0     0
SMALL
GAST_HUCK


@<TRIPOS>ATOM
      1 CAA        -8.7420   -2.9100   14.4070 C.3       1 MOL         0.0747
      2 CAC       -10.1330   -3.4170   14.2970 C.3       1 MOL         0.0720
      3 OAF       -11.0180   -2.8970   15.2630 O.3       1 MOL        -0.3750
      4 CAD       -10.6170   -3.2660   16.5870 C.3       1 MOL         0.0720
      5 CAB        -9.1580   -2.8950   16.8610 C.3       1 MOL         0.0747
      6 NAE        -8.2380   -3.1480   15.7120 N.pl3     1 MOL        -0.2217
      7 C8         -6.9450   -3.0570   15.9020 C.2       1 MOL         0.3098
      8 N7         -6.5290   -1.9910   16.5820 N.2       1 MOL        -0.1906
      9 C5         -5.1900   -2.1140   16.6650 C.2       1 MOL         0.2280
     10 C6         -4.2130   -1.3620   17.2930 C.2       1 MOL         0.2437
     11 O6         -4.4360   -0.2520   17.8500 O.2       1 MOL        -0.3721
     12 N1         -2.9550   -1.8310   17.2080 N.am      1 MOL        -0.2526
     13 C2         -2.6160   -2.9620   16.6030 C.cat     1 MOL         0.1970
     14 N2         -1.3080   -3.2890   16.5960 N.pl3     1 MOL        -0.3346
     15 N3         -3.5150   -3.7180   16.0080 N.pl3     1 MOL        -0.2024
     16 C4         -4.8060   -3.2990   16.0490 C.2       1 MOL         0.3023
     17 N9         -5.8980   -3.8800   15.5480 N.pl3     1 MOL        -0.0814
     18 C1'        -5.8650   -5.1340   14.8810 C.3       1 MOL         0.2198
     19 O4'        -5.8630   -4.8270   13.4070 O.3       1 MOL        -0.3354
     20 C2'        -6.9730   -6.1220   15.0740 C.3       1 MOL         0.1398
     21 O2'        -6.4190   -7.3450   15.5850 O.3       1 MOL        -0.3836
     22 C3'        -7.6420   -6.2630   13.6860 C.3       1 MOL         0.1150
     23 O3'        -8.1590   -7.5510   13.4660 O.3       1 MOL        -0.3864
     24 C4'        -6.5570   -5.9440   12.7390 C.3       1 MOL         0.1189
     25 C5'        -7.0540   -5.4070   11.3880 C.3       1 MOL         0.1131
     26 O5'        -7.8640   -4.2970   11.5770 O.3       1 MOL        -0.2441
     27 PA         -7.4970   -2.9230   10.9000 P.3       1 MOL         0.3266
     28 O2A        -8.2600   -1.8470   11.6100 O.co2     1 MOL        -0.5692
     29 O1A        -6.0250   -2.7410   10.8090 O.co2     1 MOL        -0.5692
     30 O3A        -8.1130   -3.0840    9.4210 O.3       1 MOL        -0.1171
     31 PB         -7.5550   -2.3550    8.1180 P.3       1 MOL         0.3553
     32 O2B        -7.4880   -0.8890    8.3640 O.co2     1 MOL        -0.5652
     33 O1B        -6.2950   -2.9790    7.6660 O.co2     1 MOL        -0.5652
     34 O3B        -8.6860   -2.6920    7.0830 O.3       1 MOL        -0.1546
     35 PG        -10.0510   -1.8660    6.5280 P.3       1 MOL         0.1879
     36 O2G       -10.4190   -0.9860    7.7760 O.co2     1 MOL        -0.6091
     37 O3G        -9.5680   -0.9810    5.3150 O.co2     1 MOL        -0.6091
     38 O1G       -10.9480   -2.9910    6.1810 O.co2     1 MOL        -0.6091
     39 H1         -8.7317   -1.8288   14.2047 H         1 MOL         0.0595
     40 H2         -8.1072   -3.4267   13.6721 H         1 MOL         0.0595
     41 H3        -10.1103   -4.5115   14.4044 H         1 MOL         0.0584
     42 H4        -10.5177   -3.1542   13.3005 H         1 MOL         0.0584
     43 H5        -10.7366   -4.3530   16.7057 H         1 MOL         0.0584
     44 H6        -11.2594   -2.7450   17.3122 H         1 MOL         0.0584
     45 H7         -8.8072   -3.4849   17.7206 H         1 MOL         0.0595
     46 H8         -9.1146   -1.8242   17.1088 H         1 MOL         0.0595
     47 H9         -2.2264   -1.2908   17.6292 H         1 MOL         0.1815
     48 H10        -0.9968   -4.1577   16.1384 H         1 MOL         0.1763
     49 H11        -0.6200   -2.6701   17.0483 H         1 MOL         0.1763
     50 H12        -3.2498   -4.5915   15.5310 H         1 MOL         0.2430
     51 H13        -4.9269   -5.6312   15.1688 H         1 MOL         0.1010
     52 H14        -7.7086   -5.7388   15.7965 H         1 MOL         0.0676
     53 H15        -7.1155   -7.9786   15.7108 H         1 MOL         0.2101
     54 H16        -8.4610   -5.5355   13.5860 H         1 MOL         0.0648
     55 H17        -7.4549   -8.1868   13.5178 H         1 MOL         0.2100
     56 H18        -5.9015   -6.8136   12.5841 H         1 MOL         0.0651
     57 H19        -7.6291   -6.1921   10.8753 H         1 MOL         0.0648
     58 H20        -6.1891   -5.1235   10.7704 H         1 MOL         0.0648
@<TRIPOS>BOND
     1    1    2 1  
     2    1    6 1  
     3    2    3 1  
     4    3    4 1  
     5    4    5 1  
     6    5    6 1  
     7    6    7 1  
     8    7    8 2  
     9    7   17 1  
    10    8    9 1  
    11    9   10 1  
    12    9   16 2  
    13   10   11 2  
    14   10   12 am 
    15   12   13 ar 
    16   13   14 ar 
    17   13   15 ar 
    18   15   16 1  
    19   16   17 1  
    20   17   18 1  
    21   18   19 1  
    22   18   20 1  
    23   19   24 1  
    24   20   21 1  
    25   20   22 1  
    26   22   23 1  
    27   22   24 1  
    28   24   25 1  
    29   25   26 1  
    30   26   27 1  
    31   27   28 ar 
    32   27   29 ar 
    33   27   30 1  
    34   30   31 1  
    35   31   32 ar 
    36   31   33 ar 
    37   31   34 1  
    38   34   35 1  
    39   35   36 ar 
    40   35   37 ar 
    41   35   38 ar 
    42    1   39 1  
    43    1   40 1  
    44    2   41 1  
    45    2   42 1  
    46    4   43 1  
    47    4   44 1  
    48    5   45 1  
    49    5   46 1  
    50   12   47 1  
    51   14   48 1  
    52   14   49 1  
    53   15   50 1  
    54   18   51 1  
    55   20   52 1  
    56   21   53 1  
    57   22   54 1  
    58   23   55 1  
    59   24   56 1  
    60   25   57 1  
    61   25   58 1  
@<TRIPOS>SUBSTRUCTURE
     1 MOL         1

