### 
### Created by X-TOOL on Fri Sep 26 17:34:58 2014
### 

@<TRIPOS>MOLECULE
4bb9_ligand
   27    27     1     0     0
SMALL
GAST_HUCK


@<TRIPOS>ATOM
      1 C1         50.6400   31.4180   15.6160 C.3       1 F1P         0.1346
      2 C2         49.2680   31.2540   14.9520 C.3       1 F1P         0.2250
      3 C3         48.1950   31.7850   15.8920 C.3       1 F1P         0.1395
      4 C4         46.8130   31.5870   15.3030 C.3       1 F1P         0.1141
      5 C5         46.5700   30.1030   15.0980 C.3       1 F1P         0.1070
      6 C6         47.6610   29.6080   14.0850 C.3       1 F1P         0.0795
      7 O1         50.6800   30.6200   16.7980 O.3       1 F1P        -0.2706
      8 O2         49.2630   31.9930   13.7380 O.3       1 F1P        -0.3606
      9 O3         48.4020   33.1590   16.2250 O.3       1 F1P        -0.3837
     10 O4         45.8050   32.0310   16.2650 O.3       1 F1P        -0.3864
     11 O5         46.6830   29.3320   16.3310 O.3       1 F1P        -0.3869
     12 O6         48.9880   29.8660   14.7110 O.3       1 F1P        -0.3418
     13 P1         51.9560   30.7580   17.7460 P.3       1 F1P         0.2009
     14 O1P        51.7970   29.6020   18.7390 O.co2     1 F1P        -0.5537
     15 O2P        51.9440   32.1350   18.4600 O.co2     1 F1P        -0.5537
     16 O3P        53.2200   30.7000   16.8480 O.co2     1 F1P        -0.5537
     17 H1         50.7994   32.4743   15.8782 H         1 F1P         0.0667
     18 H2         51.4277   31.0895   14.9220 H         1 F1P         0.0667
     19 H3         48.2523   31.2033   16.8238 H         1 F1P         0.0675
     20 H4         46.7198   32.1366   14.3547 H         1 F1P         0.0648
     21 H5         45.5653   29.9533   14.6760 H         1 F1P         0.0643
     22 H6         47.5762   30.1618   13.1384 H         1 F1P         0.0587
     23 H7         47.5372   28.5320   13.8928 H         1 F1P         0.0587
     24 H8         49.4502   32.9057   13.9234 H         1 F1P         0.2129
     25 H9         47.7517   33.4307   16.8619 H         1 F1P         0.2101
     26 H10        45.9105   31.5499   17.0774 H         1 F1P         0.2100
     27 H11        47.5478   29.4577   16.7037 H         1 F1P         0.2100
@<TRIPOS>BOND
     1    1    2 1  
     2    1    7 1  
     3    2    3 1  
     4    2    8 1  
     5    2   12 1  
     6    3    4 1  
     7    3    9 1  
     8    4    5 1  
     9    4   10 1  
    10    5    6 1  
    11    5   11 1  
    12    6   12 1  
    13    7   13 1  
    14   13   14 ar 
    15   13   15 ar 
    16   13   16 ar 
    17    1   17 1  
    18    1   18 1  
    19    3   19 1  
    20    4   20 1  
    21    5   21 1  
    22    6   22 1  
    23    6   23 1  
    24    8   24 1  
    25    9   25 1  
    26   10   26 1  
    27   11   27 1  
@<TRIPOS>SUBSTRUCTURE
     1 F1P         1

