### 
### Created by X-TOOL on Fri Sep 26 17:34:39 2014
### 

@<TRIPOS>MOLECULE
2pq9_ligand
   36    36     1     0     0
SMALL
GAST_HUCK


@<TRIPOS>ATOM
      1 C1         56.6600   12.0160   28.0470 C.2       1 GG9        -0.0206
      2 C2         55.5100   11.2380   28.3940 C.2       1 GG9        -0.0423
      3 C3         55.6810    9.9660   29.2220 C.3       1 GG9         0.1415
      4 C4         57.0390    9.9660   30.0570 C.3       1 GG9         0.1216
      5 C5         58.2410   10.1970   29.0960 C.3       1 GG9         0.0983
      6 C6         58.0540   11.6390   28.4800 C.3       1 GG9         0.0036
      7 C7         56.4650   13.2670   27.2440 C.2       1 GG9         0.0477
      8 O1         55.5560    8.7450   28.2650 O.3       1 GG9        -0.2592
      9 O2         57.1100    8.7040   30.7390 O.3       1 GG9        -0.3840
     10 O3         59.4620   10.1370   29.8440 O.3       1 GG9        -0.3316
     11 O4         55.5690   13.2790   26.4210 O.co2     1 GG9        -0.5666
     12 O5         57.1910   14.1860   27.4910 O.co2     1 GG9        -0.5666
     13 P1         54.1380    7.9340   27.9670 P.3       1 GG9         0.2044
     14 O6         53.1900    8.9600   27.3390 O.co2     1 GG9        -0.5536
     15 O7         53.6550    7.4020   29.3820 O.co2     1 GG9        -0.5536
     16 O8         54.6280    6.8620   26.9600 O.co2     1 GG9        -0.5536
     17 C8         60.4060    9.0420   29.7360 C.3       1 GG9         0.3058
     18 C9         59.8280    7.5510   29.6520 C.3       1 GG9         0.3020
     19 C10        61.3200    9.1100   30.9340 C.2       1 GG9         0.1145
     20 O9         61.8590   10.2660   31.0070 O.co2     1 GG9        -0.5422
     21 O10        61.5080    8.1900   31.7530 O.co2     1 GG9        -0.5422
     22 P2         61.0700    9.4370   26.9350 P.3       1 GG9         0.2040
     23 O11        62.3110    8.8530   26.2260 O.co2     1 GG9        -0.5537
     24 O12        60.9740   10.9220   26.7400 O.co2     1 GG9        -0.5537
     25 O13        59.7920    8.6940   26.4730 O.co2     1 GG9        -0.5537
     26 O14        61.2860    9.2650   28.5590 O.3       1 GG9        -0.2326
     27 F1         58.9060    7.4070   28.7640 F         1 GG9        -0.2037
     28 F2         60.7910    6.6640   29.5050 F         1 GG9        -0.2037
     29 H1         54.5187   11.5511   28.0696 H         1 GG9         0.0595
     30 H2         54.8546    9.9156   29.9462 H         1 GG9         0.0831
     31 H3         57.0206   10.7775   30.7993 H         1 GG9         0.0674
     32 H4         58.2518    9.4377   28.3001 H         1 GG9         0.0643
     33 H5         58.3765   12.3689   29.2371 H         1 GG9         0.0411
     34 H6         58.7078   11.7119   27.5984 H         1 GG9         0.0411
     35 H7         57.1128    8.0002   30.1009 H         1 GG9         0.2103
     36 H8         59.3558    7.3465   30.6242 H         1 GG9         0.1071
@<TRIPOS>BOND
     1    1    2 2  
     2    6    1 1  
     3    1    7 1  
     4    3    2 1  
     5    4    3 1  
     6    3    8 1  
     7    5    4 1  
     8    4    9 1  
     9    5    6 1  
    10   10    5 1  
    11    7   11 ar 
    12    7   12 ar 
    13    8   13 1  
    14   17   10 1  
    15   13   14 ar 
    16   13   15 ar 
    17   13   16 ar 
    18   17   18 1  
    19   17   19 1  
    20   26   17 1  
    21   18   27 1  
    22   18   28 1  
    23   19   20 ar 
    24   19   21 ar 
    25   22   23 ar 
    26   22   24 ar 
    27   22   25 ar 
    28   22   26 1  
    29    2   29 1  
    30    3   30 1  
    31    4   31 1  
    32    5   32 1  
    33    6   33 1  
    34    6   34 1  
    35    9   35 1  
    36   18   36 1  
@<TRIPOS>SUBSTRUCTURE
     1 GG9         1

