### 
### Created by X-TOOL on Fri Sep 26 17:34:27 2014
### 

@<TRIPOS>MOLECULE
1phw_ligand
   22    22     1     0     0
SMALL
GAST_HUCK


@<TRIPOS>ATOM
      1 C1'         6.7200   -9.2370   43.1190 C.3       1 ROB         0.0767
      2 O1'         5.6870  -10.1770   42.8500 O.3       1 ROB        -0.3687
      3 C2'         6.0070   -8.2400   44.0600 C.3       1 ROB         0.1068
      4 O2'         6.7360   -6.9930   44.1230 O.3       1 ROB        -0.3869
      5 C3'         4.6630   -8.0810   43.3510 C.3       1 ROB         0.1117
      6 O3'         3.6650   -7.4540   44.0940 O.3       1 ROB        -0.3865
      7 C4'         4.3510   -9.5630   43.0090 C.3       1 ROB         0.1147
      8 C5'         3.5470   -9.9180   41.7050 C.3       1 ROB         0.1070
      9 O5'         2.6750   -8.8990   41.2190 O.3       1 ROB        -0.2734
     10 P'          3.1220   -7.6760   40.2330 P.3       1 ROB         0.2008
     11 O1P'        4.3040   -8.1030   39.2380 O.co2     1 ROB        -0.5537
     12 O2P'        3.6150   -6.4910   41.1100 O.co2     1 ROB        -0.5537
     13 O3P'        1.8540   -7.1410   39.4320 O.co2     1 ROB        -0.5537
     14 H1          7.0613   -8.7430   42.1974 H         1 ROB         0.0586
     15 H2          7.5761   -9.7151   43.6174 H         1 ROB         0.0586
     16 H3          5.8837   -8.6492   45.0736 H         1 ROB         0.0643
     17 H4          6.2847   -6.3927   44.7047 H         1 ROB         0.2100
     18 H5          4.7957   -7.4989   42.4272 H         1 ROB         0.0647
     19 H6          2.8714   -7.4005   43.5746 H         1 ROB         0.2100
     20 H7          3.8142  -10.0042   43.8617 H         1 ROB         0.0649
     21 H8          2.9395  -10.8107   41.9150 H         1 ROB         0.0639
     22 H9          4.2738  -10.1474   40.9118 H         1 ROB         0.0639
@<TRIPOS>BOND
     1    1    2 1  
     2    1    3 1  
     3    2    7 1  
     4    3    4 1  
     5    3    5 1  
     6    5    6 1  
     7    5    7 1  
     8    7    8 1  
     9    8    9 1  
    10    9   10 1  
    11   10   11 ar 
    12   10   12 ar 
    13   10   13 ar 
    14    1   14 1  
    15    1   15 1  
    16    3   16 1  
    17    4   17 1  
    18    5   18 1  
    19    6   19 1  
    20    7   20 1  
    21    8   21 1  
    22    8   22 1  
@<TRIPOS>SUBSTRUCTURE
     1 ROB         1

