### 
### Created by X-TOOL on Fri Sep 26 17:34:21 2014
### 

@<TRIPOS>MOLECULE
1gz4_ligand
   43    45     1     0     0
SMALL
GAST_HUCK


@<TRIPOS>ATOM
      1 PG         12.4020   29.4240   35.9750 P.3       1 ATP         0.1879
      2 O1G        12.1830   28.0130   35.5450 O.co2     1 ATP        -0.6091
      3 O2G        13.8200   29.7270   36.3400 O.co2     1 ATP        -0.6091
      4 O3G        11.4160   29.8690   37.0060 O.co2     1 ATP        -0.6091
      5 PB         12.0640   30.0850   33.0440 P.3       1 ATP         0.3553
      6 O1B        10.6830   30.2870   32.5350 O.co2     1 ATP        -0.5652
      7 O2B        12.7100   28.7960   32.8030 O.co2     1 ATP        -0.5652
      8 O3B        12.0900   30.3590   34.6360 O.3       1 ATP        -0.1546
      9 PA         12.8540   32.2510   31.1520 P.3       1 ATP         0.3266
     10 O1A        14.0400   33.1460   31.1330 O.co2     1 ATP        -0.5692
     11 O2A        12.5200   31.4900   29.9240 O.co2     1 ATP        -0.5692
     12 O3A        12.9870   31.2470   32.4110 O.3       1 ATP        -0.1171
     13 O5         11.5580   33.0950   31.5750 O.3       1 ATP        -0.2441
     14 C5         11.6200   34.0170   32.6650 C.3       1 ATP         0.1131
     15 C4         10.3420   34.8230   32.6860 C.3       1 ATP         0.1189
     16 O4         10.2200   35.5180   33.9690 O.3       1 ATP        -0.3364
     17 C3         10.3530   35.8750   31.5970 C.3       1 ATP         0.1149
     18 O3          9.1270   35.8140   30.8160 O.3       1 ATP        -0.3864
     19 C2         10.4550   37.1870   32.3170 C.3       1 ATP         0.1385
     20 O2          9.7200   38.2160   31.6430 O.3       1 ATP        -0.3836
     21 C1          9.9020   36.9050   33.6840 C.3       1 ATP         0.2010
     22 N9         10.4250   37.8190   34.7230 N.pl3     1 ATP        -0.1919
     23 C8         11.7440   38.1510   34.9820 C.2       1 ATP         0.1123
     24 N7         11.7690   39.0520   35.9970 N.2       1 ATP        -0.2958
     25 C5         10.5070   39.2230   36.3040 C.ar      1 ATP         0.1045
     26 C6         10.1050   40.0870   37.3010 C.ar      1 ATP         0.1298
     27 N6         10.9790   40.7980   38.0070 N.pl3     1 ATP        -0.3152
     28 N1          8.7580   40.1840   37.5270 N.ar      1 ATP        -0.2698
     29 C2          7.8680   39.4430   36.7810 C.ar      1 ATP         0.0533
     30 N3          8.3150   38.5980   35.7980 N.ar      1 ATP        -0.2714
     31 C4          9.6670   38.4960   35.5630 C.ar      1 ATP         0.1613
     32 H1         12.4804   34.6896   32.5334 H         1 ATP         0.0648
     33 H2         11.7265   33.4661   33.6111 H         1 ATP         0.0648
     34 H3          9.4849   34.1489   32.5417 H         1 ATP         0.0651
     35 H4         11.2178   35.7324   30.9324 H         1 ATP         0.0648
     36 H5          9.1509   36.4796   30.1386 H         1 ATP         0.2100
     37 H6         11.5075   37.4977   32.3921 H         1 ATP         0.0676
     38 H7          8.8037   37.9696   31.5952 H         1 ATP         0.2101
     39 H8          8.8088   37.0236   33.6554 H         1 ATP         0.0996
     40 H9         12.6142   37.7561   34.4598 H         1 ATP         0.1349
     41 H10        10.6477   41.4351   38.7454 H         1 ATP         0.1820
     42 H11        11.9874   40.7117   37.8155 H         1 ATP         0.1820
     43 H12         6.8046   39.5287   36.9729 H         1 ATP         0.0996
@<TRIPOS>BOND
     1    1    2 ar 
     2    1    3 ar 
     3    1    4 ar 
     4    8    1 1  
     5    5    6 ar 
     6    5    7 ar 
     7    5    8 1  
     8   12    5 1  
     9    9   10 ar 
    10    9   11 ar 
    11    9   12 1  
    12    9   13 1  
    13   13   14 1  
    14   14   15 1  
    15   15   16 1  
    16   15   17 1  
    17   16   21 1  
    18   17   18 1  
    19   17   19 1  
    20   19   20 1  
    21   19   21 1  
    22   21   22 1  
    23   22   23 1  
    24   22   31 1  
    25   23   24 2  
    26   24   25 1  
    27   25   26 ar 
    28   25   31 ar 
    29   26   27 1  
    30   26   28 ar 
    31   28   29 ar 
    32   29   30 ar 
    33   30   31 ar 
    34   14   32 1  
    35   14   33 1  
    36   15   34 1  
    37   17   35 1  
    38   18   36 1  
    39   19   37 1  
    40   20   38 1  
    41   21   39 1  
    42   23   40 1  
    43   27   41 1  
    44   27   42 1  
    45   29   43 1  
@<TRIPOS>SUBSTRUCTURE
     1 ATP         1

