### 
### Created by X-TOOL on Fri Sep 26 17:34:51 2014
### 

@<TRIPOS>MOLECULE
3s8n_ligand
   64    65     1     0     0
SMALL
GAST_HUCK


@<TRIPOS>ATOM
      1 C          13.5750  -13.4820   -2.4780 C.2       1 ACE         0.1753
      2 O          14.1520  -12.4440   -2.5420 O.2       1 ACE        -0.3972
      3 CH3        13.6740  -14.4380   -3.6430 C.3       1 ACE         0.0258
      4 N          12.8460  -13.8740   -1.4730 N.am      1 ACE        -0.2628
      5 CA         12.5980  -13.0660   -0.2860 C.3       1 ACE         0.1465
      6 C          13.0050  -13.8270    0.9800 C.2       1 ACE         0.2045
      7 O          12.7200  -14.9840    1.1130 O.2       1 ACE        -0.3944
      8 CB         11.1220  -12.6330   -0.2360 C.3       1 ACE         0.0400
      9 CG         10.7350  -11.9260   -1.5360 C.ar      1 ACE        -0.0004
     10 CD1        10.2110  -12.6470   -2.5570 C.ar      1 ACE        -0.0239
     11 CD2        10.9480  -10.5820   -1.7180 C.ar      1 ACE        -0.0239
     12 CE1         9.9040  -12.0240   -3.7290 C.ar      1 ACE         0.0115
     13 CE2        10.6380   -9.9570   -2.9070 C.ar      1 ACE         0.0115
     14 CZ         10.1030  -10.6800   -3.9420 C.ar      1 ACE         0.1728
     15 OH          9.7720  -10.2140   -5.1470 O.3       1 ACE        -0.2040
     16 P          10.0380   -8.7800   -5.6800 P.3       1 ACE         0.1348
     17 O1P         9.9320   -8.8510   -7.1590 O.co2     1 ACE        -0.6653
     18 O2P         9.1630   -7.8290   -5.1110 O.co2     1 ACE        -0.6653
     19 O3P        11.3010   -8.4300   -5.4670 O.co2     1 ACE        -0.6653
     20 N          13.6240  -13.1080    1.8650 N.am      1 ACE        -0.2738
     21 O          13.1110  -15.2570    4.5910 O.2       1 ACE        -0.3419
     22 CA         14.0740  -13.6300    3.1210 C.3       1 ACE         0.1331
     23 C          12.9220  -14.2810    3.9090 C.2       1 ACE         0.2267
     24 CB1        15.1980  -14.5840    2.8170 C.3       1 ACE        -0.0199
     25 CB2        14.7130  -12.5460    3.9480 C.3       1 ACE        -0.0199
     26 CG1        16.5040  -13.8670    3.0440 C.3       1 ACE        -0.0516
     27 CG2        16.1270  -12.4510    3.4070 C.3       1 ACE        -0.0516
     28 N          11.7760  -13.6670    3.8390 N.am      1 ACE        -0.2608
     29 CA         10.5980  -14.0970    4.5610 C.3       1 ACE         0.1474
     30 C           9.5770  -14.7550    3.6550 C.2       1 ACE         0.2017
     31 O           8.4370  -14.8490    3.9870 O.2       1 ACE        -0.3945
     32 CB          9.9970  -12.9130    5.3010 C.3       1 ACE         0.0774
     33 CG          9.4270  -11.8020    4.4420 C.2       1 ACE         0.1781
     34 OD1         9.8850  -11.6950    3.2360 O.2       1 ACE        -0.3970
     35 ND2         8.5750  -10.9940    4.9850 N.am      1 ACE        -0.3007
     36 N          10.0370  -15.2740    2.5670 N.am      1 ACE        -0.2988
     37 H1         13.0877  -15.3429   -3.4255 H         1 ACE         0.0467
     38 H2         14.7269  -14.7130   -3.8032 H         1 ACE         0.0467
     39 H3         13.2794  -13.9544   -4.5488 H         1 ACE         0.0467
     40 H4         12.4319  -14.7831   -1.5184 H         1 ACE         0.1885
     41 H5         13.2173  -12.1593   -0.3510 H         1 ACE         0.0840
     42 H6         10.9734  -11.9455    0.6097 H         1 ACE         0.0584
     43 H7         10.4870  -13.5212   -0.1025 H         1 ACE         0.0584
     44 H8         10.0376  -13.7108   -2.4420 H         1 ACE         0.0703
     45 H9         11.3699   -9.9985   -0.9077 H         1 ACE         0.0703
     46 H10         9.4823  -12.6165   -4.5328 H         1 ACE         0.0736
     47 H11        10.8171   -8.8943   -3.0237 H         1 ACE         0.0736
     48 H12        13.7950  -12.1441    1.6608 H         1 ACE         0.1839
     49 H13        15.1324  -14.9140    1.7697 H         1 ACE         0.0277
     50 H14        15.1336  -15.4581    3.4816 H         1 ACE         0.0277
     51 H15        14.7204  -12.8208    5.0131 H         1 ACE         0.0277
     52 H16        14.1810  -11.5919    3.8191 H         1 ACE         0.0277
     53 H17        17.1142  -13.8800    2.1289 H         1 ACE         0.0265
     54 H18        17.0641  -14.3384    3.8650 H         1 ACE         0.0265
     55 H19        16.8084  -12.0544    4.1741 H         1 ACE         0.0265
     56 H20        16.1581  -11.8031    2.5186 H         1 ACE         0.0265
     57 H21        11.7064  -12.8570    3.2566 H         1 ACE         0.1891
     58 H22        10.9110  -14.8433    5.3060 H         1 ACE         0.0828
     59 H23        10.7855  -12.4773    5.9322 H         1 ACE         0.0551
     60 H24         9.1853  -13.2934    5.9385 H         1 ACE         0.0551
     61 H25         8.1790  -10.2497    4.4473 H         1 ACE         0.1814
     62 H26         8.3124  -11.1137    5.9425 H         1 ACE         0.1814
     63 H27         9.4153  -15.7236    1.9256 H         1 ACE         0.1815
     64 H28        11.0153  -15.2267    2.3651 H         1 ACE         0.1815
@<TRIPOS>BOND
     1    1    2 2  
     2    1    3 1  
     3    4    1 am 
     4    5    4 1  
     5    6    5 1  
     6    5    8 1  
     7    6    7 2  
     8   20    6 am 
     9    8    9 1  
    10    9   10 ar 
    11    9   11 ar 
    12   10   12 ar 
    13   11   13 ar 
    14   12   14 ar 
    15   13   14 ar 
    16   14   15 1  
    17   15   16 1  
    18   16   17 ar 
    19   16   18 ar 
    20   16   19 ar 
    21   22   20 1  
    22   23   21 2  
    23   22   23 1  
    24   22   24 1  
    25   22   25 1  
    26   23   28 am 
    27   24   26 1  
    28   25   27 1  
    29   26   27 1  
    30   28   29 1  
    31   29   30 1  
    32   29   32 1  
    33   30   31 2  
    34   30   36 am 
    35   32   33 1  
    36   33   34 2  
    37   33   35 am 
    38    3   37 1  
    39    3   38 1  
    40    3   39 1  
    41    4   40 1  
    42    5   41 1  
    43    8   42 1  
    44    8   43 1  
    45   10   44 1  
    46   11   45 1  
    47   12   46 1  
    48   13   47 1  
    49   20   48 1  
    50   24   49 1  
    51   24   50 1  
    52   25   51 1  
    53   25   52 1  
    54   26   53 1  
    55   26   54 1  
    56   27   55 1  
    57   27   56 1  
    58   28   57 1  
    59   29   58 1  
    60   32   59 1  
    61   32   60 1  
    62   35   61 1  
    63   35   62 1  
    64   36   63 1  
    65   36   64 1  
@<TRIPOS>SUBSTRUCTURE
     1 ACE         1

