### 
### Created by X-TOOL on Fri Sep 26 17:34:56 2014
### 

@<TRIPOS>MOLECULE
3tif_ligand
   39    41     1     0     0
SMALL
GAST_HUCK


@<TRIPOS>ATOM
      1 PB         30.6760    4.8350  -12.9890 P.3       1 ADP         0.2069
      2 O1B        29.9120    5.3370  -14.1710 O.co2     1 ADP        -0.5891
      3 O2B        29.7150    4.1720  -12.0200 O.co2     1 ADP        -0.5891
      4 O3B        31.3610    5.9480  -12.2680 O.co2     1 ADP        -0.5891
      5 PA         31.8660    3.5110  -14.9890 P.3       1 ADP         0.3276
      6 O1A        31.5610    2.1790  -15.6540 O.co2     1 ADP        -0.5556
      7 O2A        32.6160    4.5780  -15.8650 O.co2     1 ADP        -0.5556
      8 O3A        31.7520    3.7610  -13.4400 O.3       1 ADP        -0.1548
      9 O5'        33.2390    2.8070  -14.6770 O.3       1 ADP        -0.2436
     10 C5'        33.3520    1.5620  -14.0700 C.3       1 ADP         0.1132
     11 C4'        34.7310    0.9910  -13.7970 C.3       1 ADP         0.1189
     12 O4'        35.3480    0.4240  -14.9360 O.3       1 ADP        -0.3364
     13 C3'        35.6940    1.9810  -13.2020 C.3       1 ADP         0.1149
     14 O3'        36.3230    1.5480  -12.0290 O.3       1 ADP        -0.3864
     15 C2'        36.6790    2.2090  -14.2200 C.3       1 ADP         0.1385
     16 O2'        37.9490    2.4900  -13.7070 O.3       1 ADP        -0.3836
     17 C1'        36.6710    0.9710  -15.0570 C.3       1 ADP         0.2010
     18 N9         36.9860    1.1890  -16.4590 N.pl3     1 ADP        -0.1919
     19 C8         36.2600    1.9240  -17.3250 C.2       1 ADP         0.1123
     20 N7         36.8500    1.8880  -18.5310 N.2       1 ADP        -0.2958
     21 C5         37.9670    1.1200  -18.4150 C.ar      1 ADP         0.1045
     22 C6         38.9550    0.7380  -19.3270 C.ar      1 ADP         0.1298
     23 N6         38.8890    1.1700  -20.6670 N.pl3     1 ADP        -0.3152
     24 N1         39.9660   -0.0440  -18.9220 N.ar      1 ADP        -0.2698
     25 C2         40.0270   -0.4630  -17.6430 C.ar      1 ADP         0.0533
     26 N3         39.0920   -0.1180  -16.7380 N.ar      1 ADP        -0.2714
     27 C4         38.0590    0.6740  -17.1050 C.ar      1 ADP         0.1613
     28 H1         32.8286    0.8415  -14.7157 H         1 ADP         0.0648
     29 H2         32.8351    1.6292  -13.1013 H         1 ADP         0.0648
     30 H3         34.5906    0.1850  -13.0617 H         1 ADP         0.0651
     31 H4         35.1573    2.9151  -12.9799 H         1 ADP         0.0648
     32 H5         36.9117    2.2257  -11.7180 H         1 ADP         0.2100
     33 H6         36.3688    3.0664  -14.8353 H         1 ADP         0.0676
     34 H7         38.2455    1.7575  -13.1798 H         1 ADP         0.2101
     35 H8         37.4061    0.2619  -14.6486 H         1 ADP         0.0996
     36 H9         35.3431    2.4604  -17.0854 H         1 ADP         0.1349
     37 H10        39.6189    0.8864  -21.3361 H         1 ADP         0.1820
     38 H11        38.1108    1.7693  -20.9772 H         1 ADP         0.1820
     39 H12        40.8516   -1.0953  -17.3342 H         1 ADP         0.0996
@<TRIPOS>BOND
     1    1    2 ar 
     2    1    3 ar 
     3    1    4 ar 
     4    8    1 1  
     5    5    6 ar 
     6    5    7 ar 
     7    5    8 1  
     8    5    9 1  
     9    9   10 1  
    10   10   11 1  
    11   11   12 1  
    12   11   13 1  
    13   12   17 1  
    14   13   14 1  
    15   13   15 1  
    16   15   16 1  
    17   15   17 1  
    18   17   18 1  
    19   18   19 1  
    20   18   27 1  
    21   19   20 2  
    22   20   21 1  
    23   21   22 ar 
    24   21   27 ar 
    25   22   23 1  
    26   22   24 ar 
    27   24   25 ar 
    28   25   26 ar 
    29   26   27 ar 
    30   10   28 1  
    31   10   29 1  
    32   11   30 1  
    33   13   31 1  
    34   14   32 1  
    35   15   33 1  
    36   16   34 1  
    37   17   35 1  
    38   19   36 1  
    39   23   37 1  
    40   23   38 1  
    41   25   39 1  
@<TRIPOS>SUBSTRUCTURE
     1 ADP         1

