REMARK  3 active torsions:
REMARK  status: ('A' for Active; 'I' for Inactive)
REMARK    1  A    between atoms: O3_1  and  N2_2 
REMARK    2  A    between atoms: N2_2  and  S1_3 
REMARK    3  A    between atoms: S1_3  and  N1_6 
ROOT
ATOM      1  S1  HSW d          -5.480   0.906  16.551  0.00  0.00     0.335 S 
ATOM      2  O2  HSW d          -6.861   1.413  16.297  0.00  0.00    -0.181 OA
ATOM      3  O1  HSW d          -5.256   0.963  18.035  0.00  0.00    -0.181 OA
ENDROOT
BRANCH   1   4
ATOM      4  N2  HSW d          -4.382   1.833  15.778  0.00  0.00    -0.177 N 
ATOM      5  H2  HSW d          -3.772   2.504  16.199  0.00  0.00     0.209 HD
BRANCH   4   6
ATOM      6  O3  HSW d          -4.455   1.495  14.329  0.00  0.00    -0.279 OA
ATOM      7  H1  HSW d          -3.825   2.021  13.850  0.00  0.00     0.245 HD
ENDBRANCH   4   6
ENDBRANCH   1   4
BRANCH   1   8
ATOM      8  N1  HSW d          -5.283  -0.621  16.047  0.00  0.00    -0.310 N 
ATOM      9  H3  HSW d          -5.868  -1.347  16.409  0.00  0.00     0.170 HD
ATOM     10  H4  HSW d          -4.576  -0.838  15.374  0.00  0.00     0.170 HD
ENDBRANCH   1   8
TORSDOF 3
