### 
### Created by X-TOOL on Fri Sep 26 17:34:23 2014
### 

@<TRIPOS>MOLECULE
1o0n_ligand
   32    33     1     0     0
SMALL
GAST_HUCK


@<TRIPOS>ATOM
      1 N1         36.4670   -2.1580   11.9650 N.am      1 U3P        -0.1592
      2 C2         35.3090   -2.2720   11.2030 C.2       1 U3P         0.3328
      3 N3         34.6430   -3.4670   11.3380 N.am      1 U3P        -0.1865
      4 C4         35.0020   -4.5360   12.1370 C.2       1 U3P         0.1822
      5 C5         36.2080   -4.3460   12.8810 C.2       1 U3P         0.0062
      6 C6         36.8850   -3.1960   12.7710 C.2       1 U3P         0.0591
      7 O2         34.8970   -1.3810   10.4690 O.2       1 U3P        -0.3815
      8 O4         34.2850   -5.5360   12.1690 O.2       1 U3P        -0.4124
      9 P          38.4720    3.3630   13.0140 P.3       1 U3P         0.2013
     10 O1P        37.4380    3.5170   14.1220 O.co2     1 U3P        -0.5537
     11 O2P        38.3210    4.3830   11.8990 O.co2     1 U3P        -0.5537
     12 O3P        39.8960    3.2260   13.5350 O.co2     1 U3P        -0.5537
     13 O5'        39.5890   -1.7090   14.3630 O.3       1 U3P        -0.3924
     14 C5'        40.3340   -0.9420   13.3980 C.3       1 U3P         0.0734
     15 C4'        39.3940   -0.2170   12.4600 C.3       1 U3P         0.1182
     16 O4'        38.5950   -1.1950   11.7380 O.3       1 U3P        -0.3363
     17 C3'        38.4090    0.7440   13.1230 C.3       1 U3P         0.1483
     18 O3'        38.2390    1.9200   12.3410 O.3       1 U3P        -0.2675
     19 C2'        37.1140   -0.0620   13.1650 C.3       1 U3P         0.1433
     20 O2'        35.9550    0.7430   13.1160 O.3       1 U3P        -0.3833
     21 C1'        37.2220   -0.8950   11.8900 C.3       1 U3P         0.2062
     22 H1         33.8075   -3.5745   10.7992 H         1 U3P         0.2259
     23 H2         36.5752   -5.1349   13.5358 H         1 U3P         0.0258
     24 H3         37.8044   -3.0753   13.3421 H         1 U3P         0.1178
     25 H4         39.0499   -2.3471   13.9106 H         1 U3P         0.2095
     26 H5         40.9765   -1.6186   12.8154 H         1 U3P         0.0584
     27 H6         40.9590   -0.2059   13.9248 H         1 U3P         0.0584
     28 H7         40.0068    0.3556   11.7483 H         1 U3P         0.0650
     29 H8         38.7415    1.0171   14.1353 H         1 U3P         0.0704
     30 H9         37.0773   -0.6980   14.0617 H         1 U3P         0.0680
     31 H10        35.9541    1.2462   12.3102 H         1 U3P         0.2101
     32 H11        36.8586   -0.3087   11.0332 H         1 U3P         0.0997
@<TRIPOS>BOND
     1    1    2 am 
     2    1    6 am 
     3   21    1 1  
     4    2    3 am 
     5    2    7 2  
     6    3    4 am 
     7    5    4 1  
     8    4    8 2  
     9    6    5 2  
    10    9   10 ar 
    11    9   11 ar 
    12    9   12 ar 
    13   18    9 1  
    14   14   13 1  
    15   15   14 1  
    16   15   16 1  
    17   17   15 1  
    18   16   21 1  
    19   17   18 1  
    20   17   19 1  
    21   19   20 1  
    22   19   21 1  
    23    3   22 1  
    24    5   23 1  
    25    6   24 1  
    26   13   25 1  
    27   14   26 1  
    28   14   27 1  
    29   15   28 1  
    30   17   29 1  
    31   19   30 1  
    32   20   31 1  
    33   21   32 1  
@<TRIPOS>SUBSTRUCTURE
     1 U3P         1

