### 
### Created by X-TOOL on Sun Nov 13 14:27:47 2016
### 

@<TRIPOS>MOLECULE
4u0w_ligand
   33    33     1     0     0
SMALL
GAST_HUCK


@<TRIPOS>ATOM
      1 C1        -41.9490   -8.6460   25.3990 C.3       1 MOL         0.1823
      2 C2        -41.3170   -7.8670   24.2540 C.3       1 MOL         0.1208
      3 C3        -42.2140   -7.7470   23.0660 C.3       1 MOL         0.1111
      4 C4        -42.7450   -9.0840   22.6820 C.3       1 MOL         0.1120
      5 C5        -43.5680   -9.5750   23.8490 C.3       1 MOL         0.1176
      6 C6        -44.3340  -10.8230   23.5280 C.3       1 MOL         0.1071
      7 C7        -40.1800   -5.5560   24.1310 C.2       1 MOL         0.1733
      8 C8        -39.8460   -4.2870   24.9010 C.3       1 MOL         0.0257
      9 N2        -40.9200   -6.5780   24.8130 N.am      1 MOL        -0.2766
     10 O1        -42.8960   -7.8660   26.0250 O.3       1 MOL        -0.3651
     11 O3        -41.5040   -7.2390   21.9180 O.3       1 MOL        -0.3867
     12 O4        -43.5550   -8.9930   21.5040 O.3       1 MOL        -0.3865
     13 O5        -42.6570   -9.8670   24.9460 O.3       1 MOL        -0.3406
     14 O6        -45.0670  -11.1200   24.7180 O.3       1 MOL        -0.2734
     15 O7        -39.8200   -5.6790   22.9770 O.2       1 MOL        -0.3974
     16 P         -46.1970  -12.2460   24.7060 P.3       1 MOL         0.2008
     17 O1P       -47.2570  -11.9520   23.6640 O.co2     1 MOL        -0.5537
     18 O2P       -45.5090  -13.5580   24.3930 O.co2     1 MOL        -0.5537
     19 O3P       -46.8160  -12.2400   26.0880 O.co2     1 MOL        -0.5537
     20 H1        -41.1597   -8.9255   26.1124 H         1 MOL         0.0932
     21 H2        -40.4119   -8.3988   23.9252 H         1 MOL         0.0633
     22 H3        -43.0460   -7.0717   23.3144 H         1 MOL         0.0645
     23 H4        -41.9114   -9.7764   22.4931 H         1 MOL         0.0647
     24 H5        -44.2752   -8.7872   24.1477 H         1 MOL         0.0650
     25 H6        -43.6473  -11.6460   23.2808 H         1 MOL         0.0639
     26 H7        -45.0187  -10.6508   22.6845 H         1 MOL         0.0639
     27 H8        -39.2806   -3.6023   24.2517 H         1 MOL         0.0467
     28 H9        -39.2388   -4.5418   25.7821 H         1 MOL         0.0467
     29 H10       -40.7770   -3.7994   25.2257 H         1 MOL         0.0467
     30 H11       -41.1886   -6.3905   25.7578 H         1 MOL         0.1857
     31 H12       -43.5870   -7.6532   25.4088 H         1 MOL         0.2126
     32 H13       -41.1471   -6.3825   22.1213 H         1 MOL         0.2100
     33 H14       -43.0244   -8.6833   20.7794 H         1 MOL         0.2100
@<TRIPOS>BOND
     1    2    1 1  
     2    1   10 1  
     3    1   13 1  
     4    2    3 1  
     5    9    2 1  
     6    3    4 1  
     7    3   11 1  
     8    4    5 1  
     9    4   12 1  
    10    5    6 1  
    11   13    5 1  
    12    6   14 1  
    13    7    8 1  
    14    7    9 am 
    15    7   15 2  
    16   14   16 1  
    17   16   17 ar 
    18   16   18 ar 
    19   16   19 ar 
    20    1   20 1  
    21    2   21 1  
    22    3   22 1  
    23    4   23 1  
    24    5   24 1  
    25    6   25 1  
    26    6   26 1  
    27    8   27 1  
    28    8   28 1  
    29    8   29 1  
    30    9   30 1  
    31   10   31 1  
    32   11   32 1  
    33   12   33 1  
@<TRIPOS>SUBSTRUCTURE
     1 MOL         1

