### 
### Created by X-TOOL on Fri Sep 26 17:34:28 2014
### 

@<TRIPOS>MOLECULE
1t32_ligand
   82    88     1     0     0
SMALL
GAST_HUCK


@<TRIPOS>ATOM
      1 O6         12.2900   76.8260    5.0230 O.2       1 OHH        -0.3847
      2 P1         10.0080   67.5470    6.5890 P.3       1 OHH         0.0920
      3 O1          8.4840   67.2520    6.8930 O.co2     1 OHH        -0.5590
      4 O3         10.3390   66.5300    5.5010 O.co2     1 OHH        -0.5590
      5 O2         10.8370   67.2750    7.7990 O.co2     1 OHH        -0.5590
      6 C9         10.4900   69.1160    5.9740 C.3       1 OHH         0.1397
      7 O4          8.4970   69.7310    4.7890 O.2       1 OHH        -0.3728
      8 C10         9.6560   69.4210    4.7300 C.2       1 OHH         0.1665
      9 C17        13.4310   67.7340    1.5920 C.ar      1 OHH        -0.0499
     10 C16        14.0610   67.7070    0.2840 C.ar      1 OHH        -0.0581
     11 C15        13.4720   68.4660   -0.8420 C.ar      1 OHH        -0.0581
     12 C14        12.2600   69.2710   -0.7210 C.ar      1 OHH        -0.0499
     13 C4B        11.5830   69.3240    0.5990 C.ar      1 OHH        -0.0087
     14 C8B        12.1860   68.5200    1.8380 C.ar      1 OHH        -0.0085
     15 C18        11.5640   68.5460    3.1470 C.ar      1 OHH        -0.0307
     16 C11        10.3350   69.3490    3.3380 C.ar      1 OHH         0.0544
     17 C12         9.7210   70.1350    2.1730 C.ar      1 OHH         0.0669
     18 C13        10.3650   70.0990    0.8260 C.ar      1 OHH        -0.0298
     19 O5          7.4070   70.5060    1.7450 O.2       1 OHH        -0.3837
     20 C19         8.4420   71.0440    2.1760 C.2       1 OHH         0.2097
     21 C1         10.3350   72.5980    9.0280 C.ar      1 OHH        -0.0627
     22 C2          9.1320   71.8380    8.8430 C.ar      1 OHH        -0.0701
     23 C3          9.0680   70.6840    7.8760 C.ar      1 OHH        -0.0567
     24 C4         10.2180   70.2350    7.0330 C.ar      1 OHH         0.0039
     25 C4A        11.5970   71.0600    7.1890 C.ar      1 OHH        -0.0084
     26 C8A        11.5650   72.3060    8.2860 C.ar      1 OHH        -0.0238
     27 C8         12.7960   73.1330    8.5200 C.ar      1 OHH        -0.0568
     28 C7         14.0320   72.8690    7.7970 C.ar      1 OHH        -0.0629
     29 C6         14.1110   71.7530    6.7840 C.ar      1 OHH        -0.0625
     30 C5         12.9230   70.8980    6.5130 C.ar      1 OHH        -0.0546
     31 N1          8.5290   72.4060    2.6580 N.am      1 OHH        -0.2721
     32 C20         7.3100   73.2940    2.6650 C.3       1 OHH         0.0224
     33 C24        12.2310   73.9170    2.7090 C.3       1 OHH         0.0355
     34 N2         11.9620   74.8410    3.9140 N.am      1 OHH        -0.2723
     35 C23        11.1900   74.1620    5.0490 C.3       1 OHH         0.0355
     36 C22         9.7930   73.6660    4.4930 C.3       1 OHH        -0.0092
     37 C21         9.9780   72.8410    3.1350 C.3       1 OHH         0.0479
     38 C25        10.8450   73.6000    2.0860 C.3       1 OHH        -0.0092
     39 C26        12.4400   76.1780    3.9610 C.2       1 OHH         0.2072
     40 C29        15.2240   78.2560    1.9530 C.ar      1 OHH        -0.0509
     41 C28        14.4820   77.5740    3.0170 C.ar      1 OHH        -0.0432
     42 C27        13.1730   76.8880    2.7590 C.ar      1 OHH         0.0505
     43 C34        12.6210   76.9100    1.3590 C.ar      1 OHH        -0.0329
     44 C8C        13.3130   77.5590    0.2870 C.ar      1 OHH        -0.0116
     45 C4C        14.6870   78.2730    0.5920 C.ar      1 OHH        -0.0152
     46 C30        15.3860   78.9230   -0.5060 C.ar      1 OHH        -0.0524
     47 C31        14.8020   78.9020   -1.8600 C.ar      1 OHH        -0.0598
     48 C32        13.5130   78.2410   -2.1440 C.ar      1 OHH        -0.0596
     49 C33        12.7730   77.5700   -1.0760 C.ar      1 OHH        -0.0517
     50 H1         11.5598   69.1005    5.7187 H         1 OHH         0.0881
     51 H2         13.8738   67.1720    2.4063 H         1 OHH         0.0640
     52 H3         14.9655   67.1292    0.1317 H         1 OHH         0.0634
     53 H4         13.9659   68.4219   -1.8060 H         1 OHH         0.0634
     54 H5         11.8654   69.8149   -1.5716 H         1 OHH         0.0640
     55 H6         11.9913   67.9872    3.9717 H         1 OHH         0.0703
     56 H7          9.9235   70.6546    0.0066 H         1 OHH         0.0699
     57 H8         10.3342   73.4153    9.7402 H         1 OHH         0.0546
     58 H9          8.2478   72.1003    9.4126 H         1 OHH         0.0596
     59 H10         8.1308   70.1467    7.7862 H         1 OHH         0.0536
     60 H11        12.7640   73.9420    9.2409 H         1 OHH         0.0609
     61 H12        14.9058   73.4813    7.9886 H         1 OHH         0.0616
     62 H13        15.0376   71.5732    6.2510 H         1 OHH         0.0602
     63 H14        13.0245   70.1070    5.7788 H         1 OHH         0.0628
     64 H15         6.4451   72.7325    2.2820 H         1 OHH         0.0486
     65 H16         7.4909   74.1701    2.0250 H         1 OHH         0.0486
     66 H17         7.1048   73.6270    3.6931 H         1 OHH         0.0486
     67 H18        12.7202   72.9897    3.0417 H         1 OHH         0.0522
     68 H19        12.8716   74.4262    1.9739 H         1 OHH         0.0522
     69 H20        11.0283   74.8797    5.8668 H         1 OHH         0.0522
     70 H21        11.7646   73.3022    5.4239 H         1 OHH         0.0522
     71 H22         9.1522   74.5389    4.2994 H         1 OHH         0.0307
     72 H23         9.3154   73.0200    5.2443 H         1 OHH         0.0307
     73 H24        10.5295   71.9198    3.3742 H         1 OHH         0.0559
     74 H25        10.9772   72.9715    1.1930 H         1 OHH         0.0307
     75 H26        10.3446   74.5379    1.8035 H         1 OHH         0.0307
     76 H27        16.1659   78.7454    2.1732 H         1 OHH         0.0627
     77 H28        14.8914   77.5650    4.0207 H         1 OHH         0.0652
     78 H29        11.6746   76.4216    1.1571 H         1 OHH         0.0695
     79 H30        16.3326   79.4209   -0.3295 H         1 OHH         0.0626
     80 H31        15.3349   79.3861   -2.6704 H         1 OHH         0.0630
     81 H32        13.1122   78.2531   -3.1511 H         1 OHH         0.0622
     82 H33        11.8289   77.0827   -1.2912 H         1 OHH         0.0636
@<TRIPOS>BOND
     1   39    1 2  
     2    2    3 ar 
     3    2    4 ar 
     4    2    5 ar 
     5    6    2 1  
     6    8    6 1  
     7    6   24 1  
     8    8    7 2  
     9   16    8 1  
    10    9   10 ar 
    11   14    9 ar 
    12   11   10 ar 
    13   12   11 ar 
    14   13   12 ar 
    15   13   14 ar 
    16   18   13 ar 
    17   15   14 ar 
    18   16   15 ar 
    19   17   16 ar 
    20   17   18 ar 
    21   20   17 1  
    22   20   19 2  
    23   31   20 am 
    24   22   21 ar 
    25   26   21 ar 
    26   23   22 ar 
    27   24   23 ar 
    28   24   25 ar 
    29   25   26 ar 
    30   25   30 ar 
    31   26   27 ar 
    32   27   28 ar 
    33   29   28 ar 
    34   30   29 ar 
    35   31   32 1  
    36   37   31 1  
    37   34   33 1  
    38   33   38 1  
    39   34   35 1  
    40   39   34 am 
    41   35   36 1  
    42   36   37 1  
    43   38   37 1  
    44   42   39 1  
    45   41   40 ar 
    46   40   45 ar 
    47   41   42 ar 
    48   42   43 ar 
    49   43   44 ar 
    50   44   45 ar 
    51   44   49 ar 
    52   45   46 ar 
    53   46   47 ar 
    54   47   48 ar 
    55   48   49 ar 
    56    6   50 1  
    57    9   51 1  
    58   10   52 1  
    59   11   53 1  
    60   12   54 1  
    61   15   55 1  
    62   18   56 1  
    63   21   57 1  
    64   22   58 1  
    65   23   59 1  
    66   27   60 1  
    67   28   61 1  
    68   29   62 1  
    69   30   63 1  
    70   32   64 1  
    71   32   65 1  
    72   32   66 1  
    73   33   67 1  
    74   33   68 1  
    75   35   69 1  
    76   35   70 1  
    77   36   71 1  
    78   36   72 1  
    79   37   73 1  
    80   38   74 1  
    81   38   75 1  
    82   40   76 1  
    83   41   77 1  
    84   43   78 1  
    85   46   79 1  
    86   47   80 1  
    87   48   81 1  
    88   49   82 1  
@<TRIPOS>SUBSTRUCTURE
     1 OHH         1

