1toi_ligand

Created by X-TOOL on Fri Sep 26 17:34:25 2014
 20 20  0  0  0  0  0  0  0  0999 V2000
   73.2820   53.7340   34.1950  C 0  5  0  1  0  3
   72.1530   54.1970   34.0410  O 0  0  0  1  0  1
   73.4290   52.5530   34.7740  O 0  0  0  1  0  1
   74.5300   54.4900   33.7870  C 0  0  0  3  0  4
   74.4080   55.0380   32.3640  C 0  0  0  3  0  4
   74.6950   53.9180   31.3790  C 0  0  0  1  0  3
   75.9190   53.8980   30.7100  C 0  0  0  2  0  3
   76.2060   52.8910   29.7890  C 0  0  0  2  0  3
   75.2750   51.8780   29.5680  C 0  0  0  2  0  3
   74.0540   51.8800   30.2440  C 0  0  0  2  0  3
   73.7600   52.8970   31.1500  C 0  0  0  2  0  3
   75.3931   53.8098   33.8361  H 0  0  0  1  0  1
   74.6841   55.3287   34.4819  H 0  0  0  1  0  1
   75.1330   55.8524   32.2185  H 0  0  0  1  0  1
   73.3895   55.4204   32.2017  H 0  0  0  1  0  1
   76.6526   54.6712   30.9076  H 0  0  0  1  0  1
   77.1460   52.8962   29.2492  H 0  0  0  1  0  1
   75.5006   51.0831   28.8663  H 0  0  0  1  0  1
   73.3339   51.0899   30.0641  H 0  0  0  1  0  1
   72.8122   52.8995   31.6761  H 0  0  0  1  0  1
  1  2  2  0  0  2
  1  3  2  0  0  2
  1  4  1  0  0  2
  4  5  1  0  0  2
  5  6  1  0  0  2
  6  7  4  0  0  1
  6 11  4  0  0  1
  7  8  4  0  0  1
  8  9  4  0  0  1
  9 10  4  0  0  1
 10 11  4  0  0  1
  4 12  1  0  0  2
  4 13  1  0  0  2
  5 14  1  0  0  2
  5 15  1  0  0  2
  7 16  1  0  0  2
  8 17  1  0  0  2
  9 18  1  0  0  2
 10 19  1  0  0  2
 11 20  1  0  0  2
M  END
> <MOLECULAR_FORMULA>
C9H9O2

> <MOLECULAR_WEIGHT>
149.1

> <NUM_HB_ATOMS>
2  

> <NUM_ROTOR>
2  

> <XLOGP2>
1.38 

$$$$
