### 
### Created by X-TOOL on Fri Sep 26 17:34:45 2014
### 

@<TRIPOS>MOLECULE
3gsm_ligand
   38    38     1     0     0
SMALL
GAST_HUCK


@<TRIPOS>ATOM
      1 C3         -8.5710   18.5930   12.4530 C.3       1 VPU        -0.0651
      2 C2         -7.6540   18.6200   13.6880 C.3       1 VPU        -0.0538
      3 C1         -7.5180   17.2550   14.3460 C.3       1 VPU        -0.0363
      4 CAH        -6.0530   16.8850   14.6050 C.3       1 VPU         0.0374
      5 CAG        -5.4560   16.2260   13.3740 C.2       1 VPU         0.1792
      6 OAN        -6.1130   15.3870   12.7680 O.2       1 VPU        -0.3969
      7 NAI        -4.2150   16.6040   13.0080 N.am      1 VPU        -0.2587
      8 CAB        -3.5330   16.0500   11.8250 C.3       1 VPU         0.1625
      9 CAC        -2.5770   14.9180   12.2400 C.3       1 VPU         0.1277
     10 OAJ        -3.2280   13.8420   12.9460 O.3       1 VPU        -0.3834
     11 CAD        -1.9310   14.3950   10.9520 C.3       1 VPU         0.1208
     12 OAK        -1.2360   13.1580   11.1950 O.3       1 VPU        -0.3857
     13 CAE        -0.9710   15.4280   10.3410 C.3       1 VPU         0.1464
     14 CAF        -0.5890   15.0110    8.9300 C.3       1 VPU         0.0793
     15 OAM        -1.2620   15.3700    7.9730 O.3       1 VPU        -0.3918
     16 OAL        -1.5070   16.7660   10.3000 O.3       1 VPU        -0.2649
     17 CAA        -2.7410   17.0770   11.0320 C.2       1 VPU         0.1764
     18 NAY        -3.1920   18.2580   10.9740 N.2       1 VPU        -0.3733
     19 H1         -8.6323   19.6022   12.0197 H         1 VPU         0.0230
     20 H2         -9.5764   18.2598   12.7500 H         1 VPU         0.0230
     21 H3         -8.1600   17.8978   11.7062 H         1 VPU         0.0230
     22 H4         -8.0721   19.3247   14.4219 H         1 VPU         0.0264
     23 H5         -6.6557   18.9626   13.3781 H         1 VPU         0.0264
     24 H6         -7.9643   16.4966   13.6859 H         1 VPU         0.0289
     25 H7         -8.0557   17.2682   15.3055 H         1 VPU         0.0289
     26 H8         -5.9984   16.1874   15.4537 H         1 VPU         0.0502
     27 H9         -5.4840   17.7961   14.8420 H         1 VPU         0.0502
     28 H10        -3.7383   17.2873   13.5611 H         1 VPU         0.1896
     29 H11        -4.3055   15.6329   11.1622 H         1 VPU         0.0900
     30 H12        -1.7990   15.3348   12.8965 H         1 VPU         0.0681
     31 H13        -2.5861   13.1793   13.1725 H         1 VPU         0.2103
     32 H14        -2.7332   14.2022   10.2245 H         1 VPU         0.0655
     33 H15        -1.8506   12.5085   11.5158 H         1 VPU         0.2100
     34 H16        -0.0623   15.4467   10.9606 H         1 VPU         0.0724
     35 H17        -0.5838   13.9111    8.9168 H         1 VPU         0.0589
     36 H18         0.4309   15.3846    8.7560 H         1 VPU         0.0589
     37 H19        -1.2728   16.3191    7.9331 H         1 VPU         0.2095
     38 H20        -2.6917   18.9637   10.4566 H         1 VPU         0.0670
@<TRIPOS>BOND
     1    1    2 1  
     2    2    3 1  
     3    3    4 1  
     4    4    5 1  
     5    5    6 2  
     6    5    7 am 
     7    7    8 1  
     8    8    9 1  
     9    8   17 1  
    10    9   10 1  
    11    9   11 1  
    12   11   12 1  
    13   11   13 1  
    14   13   14 1  
    15   13   16 1  
    16   14   15 1  
    17   16   17 1  
    18   17   18 2  
    19    1   19 1  
    20    1   20 1  
    21    1   21 1  
    22    2   22 1  
    23    2   23 1  
    24    3   24 1  
    25    3   25 1  
    26    4   26 1  
    27    4   27 1  
    28    7   28 1  
    29    8   29 1  
    30    9   30 1  
    31   10   31 1  
    32   11   32 1  
    33   12   33 1  
    34   13   34 1  
    35   14   35 1  
    36   14   36 1  
    37   15   37 1  
    38   18   38 1  
@<TRIPOS>SUBSTRUCTURE
     1 VPU         1

