### 
### Created by X-TOOL on Fri Sep 26 17:34:46 2014
### 

@<TRIPOS>MOLECULE
3mtw_ligand
   32    31     1     0     0
SMALL
GAST_HUCK


@<TRIPOS>ATOM
      1 CP         26.8330  115.0640    9.5040 C.3       1 M3R         0.0175
      2 P          27.7320  116.5770    9.2810 P.3       1 M3R         0.0601
      3 OPA        28.1990  117.1880   10.6490 O.co2     1 M3R        -0.6071
      4 OPB        26.8770  117.6000    8.6010 O.co2     1 M3R        -0.6071
      5 N          29.1240  116.4370    8.4560 N.am      1 M3R        -0.2812
      6 CA         29.7760  117.6810    7.9090 C.3       1 M3R         0.0862
      7 C          29.5640  117.7860    6.4100 C.2       1 M3R         0.0563
      8 OXT        29.5870  116.7750    5.7160 O.co2     1 M3R        -0.5670
      9 CB         31.2730  117.7990    8.2400 C.3       1 M3R        -0.0183
     10 CG         31.9310  119.1310    7.8890 C.3       1 M3R        -0.0165
     11 CD         33.3250  118.5610    7.8140 C.3       1 M3R         0.0627
     12 NE         34.3380  119.6160    7.6730 N.pl3     1 M3R        -0.2723
     13 CZ         34.9490  120.7240    8.0870 C.cat     1 M3R         0.2882
     14 NH2        34.5240  121.2910    9.2010 N.pl3     1 M3R        -0.2849
     15 NH1        35.9830  121.2500    7.4280 N.pl3     1 M3R        -0.2849
     16 O          29.3340  118.8510    5.8730 O.co2     1 M3R        -0.5670
     17 H1         27.4766  114.3255   10.0044 H         1 M3R         0.0443
     18 H2         26.5218  114.6745    8.5235 H         1 M3R         0.0443
     19 H3         25.9433  115.2538   10.1224 H         1 M3R         0.0443
     20 H4         29.5418  115.5398    8.3132 H         1 M3R         0.1660
     21 H5         29.2730  118.5391    8.3787 H         1 M3R         0.0679
     22 H6         31.8029  117.0065    7.6912 H         1 M3R         0.0303
     23 H7         31.3926  117.6389    9.3217 H         1 M3R         0.0303
     24 H8         31.8174  119.8887    8.6783 H         1 M3R         0.0301
     25 H9         31.5826  119.5443    6.9310 H         1 M3R         0.0301
     26 H10        33.3885  117.8880    6.9463 H         1 M3R         0.0689
     27 H11        33.5277  117.9932    8.7341 H         1 M3R         0.0689
     28 H12        34.8311  119.3715    6.8024 H         1 M3R         0.2642
     29 H13        34.9764  122.1492    9.5472 H         1 M3R         0.2615
     30 H14        33.7401  120.8752    9.7239 H         1 M3R         0.2615
     31 H15        36.3171  120.8102    6.5586 H         1 M3R         0.2615
     32 H16        36.4471  122.0958    7.7886 H         1 M3R         0.2615
@<TRIPOS>BOND
     1    1    2 1  
     2    2    3 ar 
     3    2    4 ar 
     4    2    5 am 
     5    5    6 1  
     6    6    7 1  
     7    6    9 1  
     8    7    8 ar 
     9    7   16 ar 
    10    9   10 1  
    11   10   11 1  
    12   11   12 1  
    13   12   13 ar 
    14   13   14 ar 
    15   13   15 ar 
    16    1   17 1  
    17    1   18 1  
    18    1   19 1  
    19    5   20 1  
    20    6   21 1  
    21    9   22 1  
    22    9   23 1  
    23   10   24 1  
    24   10   25 1  
    25   11   26 1  
    26   11   27 1  
    27   12   28 1  
    28   14   29 1  
    29   14   30 1  
    30   15   31 1  
    31   15   32 1  
@<TRIPOS>SUBSTRUCTURE
     1 M3R         1

