### 
### Created by X-TOOL on Fri Sep 26 17:34:46 2014
### 

@<TRIPOS>MOLECULE
2x97_ligand
   63    63     1     0     0
SMALL
GAST_HUCK


@<TRIPOS>ATOM
      1 CAP        28.1710    3.2650   44.7320 C.ar      1 RX4        -0.0602
      2 CAN        28.0420    4.6420   44.6150 C.ar      1 RX4        -0.0686
      3 CAM        27.3230    5.0650   43.4740 C.ar      1 RX4        -0.0687
      4 CAO        26.7730    4.1780   42.5190 C.ar      1 RX4        -0.0686
      5 CAQ        26.9370    2.7910   42.6680 C.ar      1 RX4        -0.0602
      6 CBC        27.6600    2.3520   43.7750 C.ar      1 RX4        -0.0393
      7 CAS        27.8500    0.8490   44.1030 C.3       1 RX4         0.0205
      8 CBG        26.5070    0.3890   44.7880 C.3       1 RX4         0.1158
      9 NAW        26.2730    1.1280   46.0250 N.am      1 RX4        -0.2644
     10 CBB        25.1810    1.8950   46.0910 C.2       1 RX4         0.2049
     11 OAI        24.3460    1.9450   45.1700 O.2       1 RX4        -0.3944
     12 CBF        25.0390    2.9090   47.2380 C.3       1 RX4         0.1421
     13 CAR        24.4600    2.2840   48.4670 C.3       1 RX4         0.0406
     14 CAZ        24.8140    3.2310   49.6380 C.2       1 RX4         0.0393
     15 OAK        26.0220    3.3730   49.9820 O.co2     1 RX4        -0.5688
     16 OAG        23.8730    3.8480   50.1300 O.co2     1 RX4        -0.5688
     17 NAU        24.1720    3.9980   46.6650 N.am      1 RX4        -0.2643
     18 CAX        24.6000    5.2640   46.5060 C.2       1 RX4         0.1752
     19 CAA        23.5820    6.2410   45.8480 C.3       1 RX4         0.0258
     20 OAE        25.7340    5.6680   46.8590 O.2       1 RX4        -0.3972
     21 P1         26.5190   -1.3530   45.2660 P.3       1 RX4         0.0153
     22 O4         25.1720   -1.7630   45.8360 O.co2     1 RX4        -0.6174
     23 O3         27.4350   -1.6580   46.4300 O.co2     1 RX4        -0.6174
     24 CAT        26.9060   -2.3000   43.8010 C.3       1 RX4         0.0350
     25 CBD        27.3550   -3.7500   44.0110 C.3       1 RX4         0.0618
     26 CAB        27.0550   -4.6990   42.7460 C.3       1 RX4        -0.0438
     27 CBA        28.9300   -3.7150   44.0870 C.2       1 RX4         0.1825
     28 OAH        29.5620   -2.7930   43.5480 O.2       1 RX4        -0.3966
     29 N          29.5320   -4.7480   44.6610 N.am      1 RX4        -0.2656
     30 CA         31.0420   -4.7760   44.6880 C.3       1 RX4         0.1278
     31 CB         31.5230   -5.9830   45.5060 C.3       1 RX4        -0.0244
     32 C          31.4750   -4.9500   43.1920 C.2       1 RX4         0.1989
     33 O          30.6480   -5.4480   42.3560 O.2       1 RX4        -0.3947
     34 NAD        32.6800   -4.5350   42.8430 N.am      1 RX4        -0.2990
     35 H1         28.6881    2.8678   45.5980 H         1 RX4         0.0557
     36 H2         28.4577    5.3347   45.3378 H         1 RX4         0.0599
     37 H3         27.1852    6.1294   43.3221 H         1 RX4         0.0559
     38 H4         26.2238    4.5696   41.6704 H         1 RX4         0.0599
     39 H5         26.5190    2.0922   41.9524 H         1 RX4         0.0557
     40 H6         28.6979    0.7105   44.7899 H         1 RX4         0.0465
     41 H7         28.0269    0.2747   43.1817 H         1 RX4         0.0465
     42 H8         25.6809    0.5688   44.0842 H         1 RX4         0.0788
     43 H9         26.9073    1.0625   46.7953 H         1 RX4         0.1872
     44 H10        26.0257    3.3208   47.4964 H         1 RX4         0.0819
     45 H11        24.9006    1.2900   48.6335 H         1 RX4         0.0478
     46 H12        23.3684    2.1896   48.3692 H         1 RX4         0.0478
     47 H13        23.2376    3.7709   46.3906 H         1 RX4         0.1884
     48 H14        24.0332    7.2410   45.7673 H         1 RX4         0.0467
     49 H15        22.6747    6.2970   46.4673 H         1 RX4         0.0467
     50 H16        23.3190    5.8754   44.8444 H         1 RX4         0.0467
     51 H17        27.7142   -1.7755   43.2702 H         1 RX4         0.0493
     52 H18        26.0051   -2.3193   43.1702 H         1 RX4         0.0493
     53 H19        26.9020   -4.1620   44.9248 H         1 RX4         0.0551
     54 H20        27.4008   -5.7203   42.9637 H         1 RX4         0.0257
     55 H21        27.5859   -4.3125   41.8635 H         1 RX4         0.0257
     56 H22        25.9734   -4.7129   42.5463 H         1 RX4         0.0257
     57 H23        28.9989   -5.4907   45.0663 H         1 RX4         0.1883
     58 H24        31.4470   -3.8451   45.1114 H         1 RX4         0.0797
     59 H25        32.6227   -5.9996   45.5231 H         1 RX4         0.0277
     60 H26        31.1495   -6.9099   45.0463 H         1 RX4         0.0277
     61 H27        31.1415   -5.9043   46.5347 H         1 RX4         0.0277
     62 H28        32.9873   -4.6314   41.8963 H         1 RX4         0.1815
     63 H29        33.2846   -4.1246   43.5256 H         1 RX4         0.1815
@<TRIPOS>BOND
     1    1    2 ar 
     2    1    6 ar 
     3    2    3 ar 
     4    3    4 ar 
     5    4    5 ar 
     6    5    6 ar 
     7    6    7 1  
     8    7    8 1  
     9    8    9 1  
    10    8   21 1  
    11    9   10 am 
    12   10   11 2  
    13   10   12 1  
    14   12   13 1  
    15   12   17 1  
    16   13   14 1  
    17   14   15 ar 
    18   14   16 ar 
    19   17   18 am 
    20   18   19 1  
    21   18   20 2  
    22   21   22 ar 
    23   21   23 ar 
    24   21   24 1  
    25   24   25 1  
    26   25   26 1  
    27   25   27 1  
    28   27   28 2  
    29   27   29 am 
    30   29   30 1  
    31   30   31 1  
    32   30   32 1  
    33   32   33 2  
    34   32   34 am 
    35    1   35 1  
    36    2   36 1  
    37    3   37 1  
    38    4   38 1  
    39    5   39 1  
    40    7   40 1  
    41    7   41 1  
    42    8   42 1  
    43    9   43 1  
    44   12   44 1  
    45   13   45 1  
    46   13   46 1  
    47   17   47 1  
    48   19   48 1  
    49   19   49 1  
    50   19   50 1  
    51   24   51 1  
    52   24   52 1  
    53   25   53 1  
    54   26   54 1  
    55   26   55 1  
    56   26   56 1  
    57   29   57 1  
    58   30   58 1  
    59   31   59 1  
    60   31   60 1  
    61   31   61 1  
    62   34   62 1  
    63   34   63 1  
@<TRIPOS>SUBSTRUCTURE
     1 RX4         1

