1gu1_ligand

Created by X-TOOL on Fri Sep 26 17:34:20 2014
 21 21  0  0  0  0  0  0  0  0999 V2000
   28.6300   50.9780   58.6370  C 0  0  0  3  0  4
   27.8860   49.7450   58.5610  C 0  0  0  2  0  4
   28.4970   48.8030   57.7520  O 0  0  0  2  0  2
   27.7740   49.1790   59.8430  C 0  0  0  2  0  4
   26.8960   48.1190   59.9030  O 0  0  0  2  0  2
   27.4170   50.1340   60.8480  C 0  0  0  2  0  3
   27.5280   51.5480   60.6290  C 0  0  0  2  0  3
   28.8440   53.1510   59.6440  C 0  5  0  1  0  3
   30.0840   53.2610   59.1970  O 0  0  0  1  0  1
   26.9640   52.5050   58.6850  O 0  0  0  2  0  2
   28.4370   54.2040   60.3050  O 0  0  0  1  0  1
   28.0270   52.0020   59.4010  C 0  0  0  1  0  4
   28.7682   51.3550   57.6129  H 0  0  0  1  0  1
   29.6113   50.7557   59.0815  H 0  0  0  1  0  1
   26.8838   49.9643   58.1641  H 0  0  0  1  0  1
   27.9703   48.0125   57.7349  H 0  0  0  1  0  1
   28.7708   48.7909   60.0994  H 0  0  0  1  0  1
   27.1884   47.4333   59.3141  H 0  0  0  1  0  1
   27.0497   49.7763   61.8088  H 0  0  0  1  0  1
   27.2301   52.2545   61.4024  H 0  0  0  1  0  1
   26.5680   53.2204   59.1686  H 0  0  0  1  0  1
  1  2  1  0  0  1
 12  1  1  0  0  1
  2  3  1  0  0  2
  2  4  1  0  0  1
  4  5  1  0  0  2
  6  4  1  0  0  1
  7  6  2  0  0  1
 12  7  1  0  0  1
  8  9  2  0  0  2
  8 11  2  0  0  2
  8 12  1  0  0  2
 12 10  1  0  0  2
  1 13  1  0  0  2
  1 14  1  0  0  2
  2 15  1  0  0  2
  3 16  1  0  0  2
  4 17  1  0  0  2
  5 18  1  0  0  2
  6 19  1  0  0  2
  7 20  1  0  0  2
 10 21  1  0  0  2
M  END
> <MOLECULAR_FORMULA>
C7H9O5

> <MOLECULAR_WEIGHT>
173.1

> <NUM_HB_ATOMS>
5  

> <NUM_ROTOR>
0  

> <XLOGP2>
-1.50

$$$$
