### 
### Created by X-TOOL on Fri Sep 26 17:34:59 2014
### 

@<TRIPOS>MOLECULE
4gr3_ligand
   74    76     1     0     0
SMALL
GAST_HUCK


@<TRIPOS>ATOM
      1 O4          9.7030   26.3050    4.6990 O.2       1 R45        -0.3964
      2 N1          6.3090   22.4290    5.7260 N.2       1 R45        -0.1519
      3 O1          7.4530   22.7090    5.1200 O.3       1 R45        -0.1670
      4 C25         8.8210   26.5950    3.8510 C.2       1 R45         0.1851
      5 C17         8.4300   25.6130    2.7890 C.3       1 R45         0.0781
      6 C16         8.5310   24.2150    3.3760 C.3       1 R45         0.0421
      7 C14         6.0270   24.1220    4.2670 C.2       1 R45        -0.0269
      8 C13         5.4020   23.3020    5.2260 C.2       1 R45         0.0430
      9 C12         3.9750   23.2550    5.6560 C.ar      1 R45        -0.0150
     10 C11         2.9750   23.9760    5.0150 C.ar      1 R45        -0.0551
     11 C10         1.6490   23.8750    5.4480 C.ar      1 R45        -0.0621
     12 C7          1.3220   23.0290    6.5080 C.ar      1 R45        -0.0626
     13 C8          2.3230   22.2950    7.1370 C.ar      1 R45        -0.0621
     14 C9          3.6430   22.3990    6.7020 C.ar      1 R45        -0.0551
     15 C15         7.3640   23.7230    4.2110 C.2       1 R45         0.1411
     16 C18         9.4750   25.7820    1.6790 C.3       1 R45         0.0357
     17 P1          9.1250   24.9510    0.1040 P.3       1 R45         0.0120
     18 O2          9.4710   23.4720    0.1530 O.co2     1 R45        -0.6187
     19 O3          7.7220   25.2760   -0.3540 O.co2     1 R45        -0.6187
     20 C19        10.1890   25.6630   -1.0960 C.ar      1 R45         0.0317
     21 C20         9.6850   26.1500   -2.3010 C.ar      1 R45        -0.0373
     22 C21        10.5550   26.7050   -3.2410 C.ar      1 R45        -0.0462
     23 C22        11.9240   26.7560   -2.9870 C.ar      1 R45         0.0175
     24 BR1        13.1200   27.5090   -4.2600 Br        1 R45        -0.0459
     25 C23        12.4260   26.2610   -1.7860 C.ar      1 R45        -0.0462
     26 C24        11.5530   25.7160   -0.8490 C.ar      1 R45        -0.0373
     27 N2          8.1910   27.7610    3.8330 N.am      1 R45        -0.2651
     28 C26         8.6000   28.8420    4.7180 C.3       1 R45         0.1324
     29 C30         7.8140   28.8760    6.0230 C.2       1 R45         0.2040
     30 O7          6.6560   28.4640    6.0900 O.2       1 R45        -0.3944
     31 C27         8.5050   30.1880    3.9900 C.3       1 R45        -0.0008
     32 C28         9.4130   30.2920    2.7720 C.3       1 R45         0.0044
     33 C29         9.3730   31.6630    2.1320 C.2       1 R45         0.0350
     34 O6          8.6490   31.8310    1.1280 O.co2     1 R45        -0.5690
     35 O5         10.0700   32.5700    2.6320 O.co2     1 R45        -0.5690
     36 N3          8.4610   29.3690    7.0710 N.am      1 R45        -0.2636
     37 C31         7.7900   29.5890    8.3360 C.3       1 R45         0.1321
     38 C35         6.6770   30.6270    8.1600 C.2       1 R45         0.1993
     39 O10         5.5210   30.3800    8.5170 O.2       1 R45        -0.3947
     40 C32         8.8050   30.0620    9.3670 C.3       1 R45        -0.0008
     41 C33         8.2900   30.1150   10.7830 C.3       1 R45         0.0044
     42 C34         9.4240   30.0860   11.7770 C.2       1 R45         0.0350
     43 O8         10.1280   31.1130   11.9030 O.co2     1 R45        -0.5690
     44 O9          9.6300   29.0260   12.4060 O.co2     1 R45        -0.5690
     45 N4          7.0260   31.7790    7.5960 N.am      1 R45        -0.2990
     46 H1          7.4140   25.8052    2.4139 H         1 R45         0.0580
     47 H2          9.4271   24.1886    4.0134 H         1 R45         0.0513
     48 H3          8.6562   23.5134    2.5381 H         1 R45         0.0513
     49 H4          5.5590   24.9130    3.6829 H         1 R45         0.0289
     50 H5          3.2231   24.6181    4.1776 H         1 R45         0.0616
     51 H6          0.8743   24.4548    4.9594 H         1 R45         0.0615
     52 H7          0.2936   22.9439    6.8399 H         1 R45         0.0610
     53 H8          2.0759   21.6418    7.9660 H         1 R45         0.0615
     54 H9          4.4160   21.8094    7.1814 H         1 R45         0.0616
     55 H10        10.4310   25.3913    2.0577 H         1 R45         0.0485
     56 H11         9.5740   26.8582    1.4742 H         1 R45         0.0485
     57 H12         8.6221   26.0979   -2.5072 H         1 R45         0.0682
     58 H13        10.1639   27.0980   -4.1725 H         1 R45         0.0655
     59 H14        13.4900   26.2999   -1.5822 H         1 R45         0.0655
     60 H15        11.9436   25.3283    0.0849 H         1 R45         0.0682
     61 H16         7.4259   27.8997    3.2042 H         1 R45         0.1883
     62 H17         9.6556   28.6730    4.9770 H         1 R45         0.0801
     63 H18         8.7797   30.9849    4.6967 H         1 R45         0.0330
     64 H19         7.4653   30.3320    3.6610 H         1 R45         0.0330
     65 H20         9.0926   29.5469    2.0290 H         1 R45         0.0433
     66 H21        10.4462   30.0786    3.0834 H         1 R45         0.0433
     67 H22         9.4318   29.5934    6.9861 H         1 R45         0.1883
     68 H23         7.3449   28.6432    8.6785 H         1 R45         0.0801
     69 H24         9.1341   31.0729    9.0845 H         1 R45         0.0330
     70 H25         9.6644   29.3759    9.3409 H         1 R45         0.0330
     71 H26         7.6358   29.2485   10.9596 H         1 R45         0.0433
     72 H27         7.7152   31.0426   10.9213 H         1 R45         0.0433
     73 H28         6.3416   32.4945    7.4554 H         1 R45         0.1815
     74 H29         7.9729   31.9302    7.3123 H         1 R45         0.1815
@<TRIPOS>BOND
     1    4    1 2  
     2    3    2 1  
     3    2    8 2  
     4   15    3 1  
     5    5    4 1  
     6    4   27 am 
     7    6    5 1  
     8    5   16 1  
     9    6   15 1  
    10    8    7 1  
    11    7   15 2  
    12    8    9 1  
    13    9   10 ar 
    14    9   14 ar 
    15   10   11 ar 
    16   11   12 ar 
    17   12   13 ar 
    18   13   14 ar 
    19   16   17 1  
    20   17   18 ar 
    21   17   19 ar 
    22   17   20 1  
    23   20   21 ar 
    24   20   26 ar 
    25   21   22 ar 
    26   22   23 ar 
    27   23   24 1  
    28   23   25 ar 
    29   25   26 ar 
    30   27   28 1  
    31   28   29 1  
    32   28   31 1  
    33   29   30 2  
    34   29   36 am 
    35   31   32 1  
    36   32   33 1  
    37   33   34 ar 
    38   33   35 ar 
    39   36   37 1  
    40   37   38 1  
    41   37   40 1  
    42   38   39 2  
    43   38   45 am 
    44   40   41 1  
    45   41   42 1  
    46   42   43 ar 
    47   42   44 ar 
    48    5   46 1  
    49    6   47 1  
    50    6   48 1  
    51    7   49 1  
    52   10   50 1  
    53   11   51 1  
    54   12   52 1  
    55   13   53 1  
    56   14   54 1  
    57   16   55 1  
    58   16   56 1  
    59   21   57 1  
    60   22   58 1  
    61   25   59 1  
    62   26   60 1  
    63   27   61 1  
    64   28   62 1  
    65   31   63 1  
    66   31   64 1  
    67   32   65 1  
    68   32   66 1  
    69   36   67 1  
    70   37   68 1  
    71   40   69 1  
    72   40   70 1  
    73   41   71 1  
    74   41   72 1  
    75   45   73 1  
    76   45   74 1  
@<TRIPOS>SUBSTRUCTURE
     1 R45         1

