### 
### Created by X-TOOL on Fri Sep 26 17:34:18 2014
### 

@<TRIPOS>MOLECULE
1hi5_ligand
   39    41     1     0     0
SMALL
GAST_HUCK


@<TRIPOS>ATOM
      1 PB         14.5960   14.3740    9.6300 P.3       1 ADP         0.2069
      2 O1B        14.6160   15.7120   10.3480 O.co2     1 ADP        -0.5891
      3 O2B        15.9180   13.6710    9.8600 O.co2     1 ADP        -0.5891
      4 O3B        13.4440   13.5430   10.1630 O.co2     1 ADP        -0.5891
      5 PA         14.0640   13.7200    6.9350 P.3       1 ADP         0.3276
      6 O1A        14.3700   12.2490    7.1720 O.co2     1 ADP        -0.5556
      7 O2A        14.7240   14.2520    5.6760 O.co2     1 ADP        -0.5556
      8 O3A        14.3660   14.6040    8.1450 O.3       1 ADP        -0.1548
      9 O5         12.4560   13.8060    6.6750 O.3       1 ADP        -0.2436
     10 C5         11.7700   15.0780    6.6220 C.3       1 ADP         0.1132
     11 C4         10.8650   15.1420    5.4060 C.3       1 ADP         0.1189
     12 O4         11.6710   15.0110    4.2000 O.3       1 ADP        -0.3364
     13 C3          9.7830   14.0650    5.3210 C.3       1 ADP         0.1149
     14 O3          8.5770   14.5770    4.7480 O.3       1 ADP        -0.3864
     15 C2         10.4100   13.0240    4.4010 C.3       1 ADP         0.1385
     16 O2          9.4310   12.2580    3.7220 O.3       1 ADP        -0.3836
     17 C1         11.2220   13.9010    3.4400 C.3       1 ADP         0.2010
     18 N9         12.4050   13.2350    2.8770 N.pl3     1 ADP        -0.1919
     19 C8         13.2570   12.3640    3.5270 C.2       1 ADP         0.1123
     20 N7         14.2390   11.9160    2.7740 N.2       1 ADP        -0.2958
     21 C5         14.0280   12.5310    1.5490 C.ar      1 ADP         0.1045
     22 C6         14.7330   12.4720    0.3190 C.ar      1 ADP         0.1298
     23 N6         15.8320   11.7350    0.1370 N.pl3     1 ADP        -0.3152
     24 N1         14.2580   13.2090   -0.7250 N.ar      1 ADP        -0.2698
     25 C2         13.1460   13.9570   -0.5360 C.ar      1 ADP         0.0533
     26 N3         12.3970   14.0920    0.5780 N.ar      1 ADP        -0.2714
     27 C4         12.8960   13.3480    1.5930 C.ar      1 ADP         0.1613
     28 H1         12.5123   15.8877    6.5640 H         1 ADP         0.0648
     29 H2         11.1637   15.2007    7.5316 H         1 ADP         0.0648
     30 H3         10.3701   16.1244    5.4116 H         1 ADP         0.0651
     31 H4          9.5682   13.6421    6.3135 H         1 ADP         0.0648
     32 H5          7.9273   13.8850    4.7096 H         1 ADP         0.2100
     33 H6         11.0672   12.3455    4.9647 H         1 ADP         0.0676
     34 H7          8.8899   12.8337    3.1944 H         1 ADP         0.2101
     35 H8         10.5733   14.2339    2.6164 H         1 ADP         0.0996
     36 H9         13.1279   12.0740    4.5687 H         1 ADP         0.1349
     37 H10        16.3032   11.7304   -0.7789 H         1 ADP         0.1820
     38 H11        16.2083   11.1712    0.9126 H         1 ADP         0.1820
     39 H12        12.8117   14.5248   -1.3967 H         1 ADP         0.0996
@<TRIPOS>BOND
     1    1    2 ar 
     2    1    3 ar 
     3    1    4 ar 
     4    8    1 1  
     5    5    6 ar 
     6    5    7 ar 
     7    5    8 1  
     8    5    9 1  
     9    9   10 1  
    10   10   11 1  
    11   11   12 1  
    12   11   13 1  
    13   12   17 1  
    14   13   14 1  
    15   13   15 1  
    16   15   16 1  
    17   15   17 1  
    18   17   18 1  
    19   18   19 1  
    20   18   27 1  
    21   19   20 2  
    22   20   21 1  
    23   21   22 ar 
    24   21   27 ar 
    25   22   23 1  
    26   22   24 ar 
    27   24   25 ar 
    28   25   26 ar 
    29   26   27 ar 
    30   10   28 1  
    31   10   29 1  
    32   11   30 1  
    33   13   31 1  
    34   14   32 1  
    35   15   33 1  
    36   16   34 1  
    37   17   35 1  
    38   19   36 1  
    39   23   37 1  
    40   23   38 1  
    41   25   39 1  
@<TRIPOS>SUBSTRUCTURE
     1 ADP         1

