### 
### Created by X-TOOL on Fri Sep 26 17:34:32 2014
### 

@<TRIPOS>MOLECULE
2evl_ligand
  128   128     1     0     0
SMALL
GAST_HUCK


@<TRIPOS>ATOM
      1 C1         22.8980    0.3900   18.3120 C.3       1 MOL         0.1880
      2 C2         22.2770    1.7350   18.6580 C.3       1 MOL         0.1341
      3 C3         22.9330    2.8130   17.7870 C.3       1 MOL         0.1141
      4 C4         24.4690    2.7580   17.8530 C.3       1 MOL         0.1119
      5 C5         24.9130    1.3460   17.4930 C.3       1 MOL         0.1130
      6 C6         26.4380    1.1950   17.5340 C.3       1 MOL         0.0730
      7 O1         22.4040   -0.6220   19.1620 O.3       1 MOL        -0.3462
      8 O2         20.8720    1.6740   18.4300 O.3       1 MOL        -0.3841
      9 O3         22.4530    4.0840   18.1320 O.3       1 MOL        -0.3864
     10 O4         24.9280    3.0750   19.1590 O.3       1 MOL        -0.3865
     11 O5         24.3090    0.4040   18.3690 O.3       1 MOL        -0.3405
     12 O6         26.7210   -0.0320   16.8870 O.3       1 MOL        -0.3924
     13 C1         22.5500   -1.9350   18.8800 C.3       1 MOL         0.0777
     14 C2         21.4990   -2.8130   19.5440 C.3       1 MOL         0.0976
     15 N2         20.2000   -2.4280   19.0320 N.am      1 MOL        -0.2775
     16 C3         21.6170   -2.6790   21.0570 C.3       1 MOL         0.0976
     17 O3         22.9060   -3.1950   21.4130 O.3       1 MOL        -0.3805
     18 C4         20.5890   -3.4830   21.8100 C.2       1 MOL        -0.0683
     19 C5         19.6520   -2.8830   22.5400 C.2       1 MOL        -0.0962
     20 C6         18.6650   -3.7270   23.3170 C.3       1 MOL        -0.0364
     21 C7         19.2770   -4.0270   24.7040 C.3       1 MOL        -0.0464
     22 C8         20.0720   -5.3510   24.7370 C.3       1 MOL        -0.0515
     23 C9         21.2310   -5.3640   25.7330 C.3       1 MOL        -0.0529
     24 C10        20.9570   -6.3020   26.8980 C.3       1 MOL        -0.0531
     25 C11        22.0700   -6.3110   27.9440 C.3       1 MOL        -0.0531
     26 C12        21.5310   -6.3820   29.3790 C.3       1 MOL        -0.0531
     27 C13        22.5690   -6.8830   30.3910 C.3       1 MOL        -0.0531
     28 C14        21.9670   -6.9300   31.7980 C.3       1 MOL        -0.0531
     29 C15        22.9530   -7.4200   32.8590 C.3       1 MOL        -0.0531
     30 C16        22.3590   -8.3960   33.8780 C.3       1 MOL        -0.0533
     31 C17        21.6120   -7.6800   34.9970 C.3       1 MOL        -0.0559
     32 C18        22.5420   -7.2940   36.1310 C.3       1 MOL        -0.0653
     33 C1         19.0010   -2.6520   18.6120 C.2       1 MOL         0.1765
     34 C2         17.5470   -2.3230   18.2640 C.3       1 MOL         0.0372
     35 C3         16.6450   -2.6220   19.4610 C.3       1 MOL        -0.0361
     36 C4         15.1510   -2.6030   19.1090 C.3       1 MOL        -0.0510
     37 C5         14.4170   -3.6870   19.8930 C.3       1 MOL        -0.0528
     38 C6         12.9340   -3.8480   19.5580 C.3       1 MOL        -0.0515
     39 C7         12.3410   -4.8640   20.5490 C.3       1 MOL        -0.0463
     40 C8         10.9180   -4.4860   20.9370 C.3       1 MOL        -0.0360
     41 C9         10.1800   -5.3710   21.9440 C.2       1 MOL        -0.0967
     42 C10        10.5410   -6.5270   22.5450 C.2       1 MOL        -0.0910
     43 C11        11.8300   -7.3200   22.3870 C.3       1 MOL        -0.0204
     44 C12        12.0550   -8.1970   23.6050 C.2       1 MOL        -0.0910
     45 C13        11.3300   -9.2820   23.8990 C.2       1 MOL        -0.0967
     46 C14        10.1790   -9.7880   23.0540 C.3       1 MOL        -0.0360
     47 C15         8.8420   -9.4360   23.7100 C.3       1 MOL        -0.0463
     48 C16         7.8400   -8.8170   22.7300 C.3       1 MOL        -0.0517
     49 C17         6.7310   -8.0240   23.4300 C.3       1 MOL        -0.0558
     50 C18         6.1330   -6.9900   22.4960 C.3       1 MOL        -0.0653
     51 O1         19.2790   -4.0160   18.2390 O.2       1 MOL        -0.3971
     52 H1         22.6058    0.1457   17.2801 H         1 MOL         0.0937
     53 H2         22.4600    1.9648   19.7180 H         1 MOL         0.0671
     54 H3         22.6422    2.6180   16.7442 H         1 MOL         0.0648
     55 H4         24.8928    3.4756   17.1351 H         1 MOL         0.0647
     56 H5         24.5761    1.1338   16.4676 H         1 MOL         0.0647
     57 H6         26.7927    1.1700   18.5749 H         1 MOL         0.0584
     58 H7         26.9200    2.0286   17.0023 H         1 MOL         0.0584
     59 H8         20.4919    0.9998   18.9809 H         1 MOL         0.2101
     60 H9         21.5043    4.0872   18.0823 H         1 MOL         0.2100
     61 H10        24.5616    2.4573   19.7808 H         1 MOL         0.2100
     62 H11        26.2912   -0.7403   17.3519 H         1 MOL         0.2095
     63 H12        23.5434   -2.2580   19.2248 H         1 MOL         0.0586
     64 H13        22.4787   -2.0683   17.7904 H         1 MOL         0.0586
     65 H14        21.6813   -3.8642   19.2760 H         1 MOL         0.0625
     66 H15        20.2738   -1.4327   18.9688 H         1 MOL         0.1857
     67 H16        21.5298   -1.6196   21.3398 H         1 MOL         0.0742
     68 H17        23.0229   -3.1306   22.3536 H         1 MOL         0.2127
     69 H18        20.6131   -4.5704   21.7561 H         1 MOL         0.0476
     70 H19        19.5960   -1.7961   22.5779 H         1 MOL         0.0451
     71 H20        18.4768   -4.6689   22.7810 H         1 MOL         0.0388
     72 H21        17.7192   -3.1784   23.4376 H         1 MOL         0.0388
     73 H22        18.4628   -4.0882   25.4411 H         1 MOL         0.0285
     74 H23        19.9549   -3.2039   24.9739 H         1 MOL         0.0285
     75 H24        20.4797   -5.5332   23.7317 H         1 MOL         0.0267
     76 H25        19.3790   -6.1624   25.0043 H         1 MOL         0.0267
     77 H26        21.3791   -4.3457   26.1218 H         1 MOL         0.0265
     78 H27        22.1432   -5.6951   25.2150 H         1 MOL         0.0265
     79 H28        20.8404   -7.3224   26.5042 H         1 MOL         0.0265
     80 H29        20.0224   -5.9883   27.3860 H         1 MOL         0.0265
     81 H30        22.6628   -5.3908   27.8356 H         1 MOL         0.0265
     82 H31        22.7137   -7.1850   27.7659 H         1 MOL         0.0265
     83 H32        20.6691   -7.0653   29.3952 H         1 MOL         0.0265
     84 H33        21.2065   -5.3752   29.6807 H         1 MOL         0.0265
     85 H34        23.4335   -6.2028   30.3897 H         1 MOL         0.0265
     86 H35        22.8967   -7.8930   30.1036 H         1 MOL         0.0265
     87 H36        21.1013   -7.6085   31.7854 H         1 MOL         0.0265
     88 H37        21.6352   -5.9172   32.0703 H         1 MOL         0.0265
     89 H38        23.3337   -6.5439   33.4045 H         1 MOL         0.0265
     90 H39        23.7861   -7.9235   32.3468 H         1 MOL         0.0265
     91 H40        23.1751   -8.9870   34.3192 H         1 MOL         0.0265
     92 H41        21.6593   -9.0673   33.3587 H         1 MOL         0.0265
     93 H42        20.8299   -8.3473   35.3882 H         1 MOL         0.0263
     94 H43        21.1476   -6.7694   34.5906 H         1 MOL         0.0263
     95 H44        21.9684   -6.7812   36.9171 H         1 MOL         0.0230
     96 H45        23.3248   -6.6215   35.7505 H         1 MOL         0.0230
     97 H46        23.0072   -8.1993   36.5480 H         1 MOL         0.0230
     98 H47        17.2298   -2.9347   17.4066 H         1 MOL         0.0502
     99 H48        17.4664   -1.2572   18.0039 H         1 MOL         0.0502
    100 H49        16.8313   -1.8654   20.2374 H         1 MOL         0.0290
    101 H50        16.9000   -3.6183   19.8513 H         1 MOL         0.0290
    102 H51        15.0281   -2.7863   18.0314 H         1 MOL         0.0267
    103 H52        14.7290   -1.6198   19.3642 H         1 MOL         0.0267
    104 H53        14.4990   -3.4463   20.9632 H         1 MOL         0.0265
    105 H54        14.9160   -4.6468   19.6938 H         1 MOL         0.0265
    106 H55        12.8200   -4.2180   18.5284 H         1 MOL         0.0267
    107 H56        12.4194   -2.8811   19.6593 H         1 MOL         0.0267
    108 H57        12.9654   -4.8891   21.4543 H         1 MOL         0.0285
    109 H58        12.3332   -5.8595   20.0812 H         1 MOL         0.0285
    110 H59        10.3206   -4.4760   20.0134 H         1 MOL         0.0390
    111 H60        10.9548   -3.4716   21.3609 H         1 MOL         0.0390
    112 H61         9.1931   -5.0065   22.2252 H         1 MOL         0.0458
    113 H62         9.8109   -6.9472   23.2352 H         1 MOL         0.0463
    114 H63        12.6747   -6.6237   22.2790 H         1 MOL         0.0511
    115 H64        11.7600   -7.9535   21.4905 H         1 MOL         0.0511
    116 H65        12.8607   -7.9247   24.2852 H         1 MOL         0.0463
    117 H66        11.5829   -9.8360   24.8018 H         1 MOL         0.0458
    118 H67        10.2565  -10.8805   22.9524 H         1 MOL         0.0390
    119 H68        10.2280   -9.3228   22.0584 H         1 MOL         0.0390
    120 H69         9.0281   -8.7175   24.5218 H         1 MOL         0.0285
    121 H70         8.4032  -10.3546   24.1267 H         1 MOL         0.0285
    122 H71         7.3772   -9.6250   22.1445 H         1 MOL         0.0267
    123 H72         8.3828   -8.1394   22.0547 H         1 MOL         0.0267
    124 H73         7.1525   -7.5143   24.3089 H         1 MOL         0.0263
    125 H74         5.9407   -8.7178   23.7524 H         1 MOL         0.0263
    126 H75         5.3413   -6.4357   23.0213 H         1 MOL         0.0230
    127 H76         5.7060   -7.4938   21.6163 H         1 MOL         0.0230
    128 H77         6.9178   -6.2903   22.1728 H         1 MOL         0.0230
@<TRIPOS>BOND
     1    1    2 1  
     2    1    7 1  
     3    1   11 1  
     4    2    3 1  
     5    2    8 1  
     6    3    4 1  
     7    3    9 1  
     8    4    5 1  
     9    4   10 1  
    10    5    6 1  
    11    5   11 1  
    12    6   12 1  
    13    7   13 1  
    14   13   14 1  
    15   14   15 1  
    16   14   16 1  
    17   15   33 am 
    18   16   17 1  
    19   16   18 1  
    20   18   19 2  
    21   19   20 1  
    22   20   21 1  
    23   21   22 1  
    24   22   23 1  
    25   23   24 1  
    26   24   25 1  
    27   25   26 1  
    28   26   27 1  
    29   27   28 1  
    30   28   29 1  
    31   29   30 1  
    32   30   31 1  
    33   31   32 1  
    34   33   34 1  
    35   33   51 2  
    36   34   35 1  
    37   35   36 1  
    38   36   37 1  
    39   37   38 1  
    40   38   39 1  
    41   39   40 1  
    42   40   41 1  
    43   41   42 2  
    44   42   43 1  
    45   43   44 1  
    46   44   45 2  
    47   45   46 1  
    48   46   47 1  
    49   47   48 1  
    50   48   49 1  
    51   49   50 1  
    52    1   52 1  
    53    2   53 1  
    54    3   54 1  
    55    4   55 1  
    56    5   56 1  
    57    6   57 1  
    58    6   58 1  
    59    8   59 1  
    60    9   60 1  
    61   10   61 1  
    62   12   62 1  
    63   13   63 1  
    64   13   64 1  
    65   14   65 1  
    66   15   66 1  
    67   16   67 1  
    68   17   68 1  
    69   18   69 1  
    70   19   70 1  
    71   20   71 1  
    72   20   72 1  
    73   21   73 1  
    74   21   74 1  
    75   22   75 1  
    76   22   76 1  
    77   23   77 1  
    78   23   78 1  
    79   24   79 1  
    80   24   80 1  
    81   25   81 1  
    82   25   82 1  
    83   26   83 1  
    84   26   84 1  
    85   27   85 1  
    86   27   86 1  
    87   28   87 1  
    88   28   88 1  
    89   29   89 1  
    90   29   90 1  
    91   30   91 1  
    92   30   92 1  
    93   31   93 1  
    94   31   94 1  
    95   32   95 1  
    96   32   96 1  
    97   32   97 1  
    98   34   98 1  
    99   34   99 1  
   100   35  100 1  
   101   35  101 1  
   102   36  102 1  
   103   36  103 1  
   104   37  104 1  
   105   37  105 1  
   106   38  106 1  
   107   38  107 1  
   108   39  108 1  
   109   39  109 1  
   110   40  110 1  
   111   40  111 1  
   112   41  112 1  
   113   42  113 1  
   114   43  114 1  
   115   43  115 1  
   116   44  116 1  
   117   45  117 1  
   118   46  118 1  
   119   46  119 1  
   120   47  120 1  
   121   47  121 1  
   122   48  122 1  
   123   48  123 1  
   124   49  124 1  
   125   49  125 1  
   126   50  126 1  
   127   50  127 1  
   128   50  128 1  
@<TRIPOS>SUBSTRUCTURE
     1 MOL         1

