1a8i_ligand

Created by X-TOOL on Fri Sep 26 17:34:14 2014
 29 30  0  0  0  0  0  0  0  0999 V2000
   33.9450   22.8240   27.5750  C 0  0  0  1  0  4
   33.9200   23.1700   26.0400  C 0  0  0  2  0  4
   33.8830   24.5890   25.9230  O 0  0  0  2  0  2
   32.6290   22.5860   25.3820  C 0  0  0  2  0  4
   32.8930   22.6750   23.9970  O 0  0  0  2  0  2
   32.5680   21.1140   25.7580  C 0  0  0  2  0  4
   31.4440   20.5260   25.1190  O 0  0  0  2  0  2
   32.5400   20.8780   27.2650  C 0  0  0  2  0  4
   32.3740   19.4390   27.7160  C 0  0  0  3  0  4
   33.4340   18.6670   27.1410  O 0  0  0  2  0  2
   33.6860   21.4360   27.8970  O 0  0  0  1  0  2
   35.2410   23.1500   28.1480  N 0  0  0  2  0  3
   35.0630   23.9880   29.1750  C 0  0  0  1  0  3
   36.0200   24.4190   29.8700  O 0  0  0  1  0  1
   33.8110   24.3560   29.4310  N 0  0  0  2  0  3
   33.0600   23.6720   28.4970  C 0  0  0  1  0  3
   31.8440   23.7720   28.4710  O 0  0  0  1  0  1
   34.8136   22.7641   25.5432  H 0  0  0  1  0  1
   33.8672   24.8296   25.0041  H 0  0  0  1  0  1
   31.7162   23.1250   25.6757  H 0  0  0  1  0  1
   32.1497   22.3366   23.5117  H 0  0  0  1  0  1
   33.4757   20.6298   25.3687  H 0  0  0  1  0  1
   31.5338   20.6153   24.1775  H 0  0  0  1  0  1
   31.6611   21.4231   27.6397  H 0  0  0  1  0  1
   31.4029   19.0511   27.3748  H 0  0  0  1  0  1
   32.4257   19.3840   28.8134  H 0  0  0  1  0  1
   34.2696   19.0088   27.4368  H 0  0  0  1  0  1
   36.1223   22.8038   27.8264  H 0  0  0  1  0  1
   33.4877   24.9845   30.1384  H 0  0  0  1  0  1
  1  2  1  0  0  1
  1 11  1  0  0  1
  1 12  1  0  0  1
  1 16  1  0  0  1
  2  3  1  0  0  2
  2  4  1  0  0  1
  4  5  1  0  0  2
  4  6  1  0  0  1
  6  7  1  0  0  2
  6  8  1  0  0  1
  8  9  1  0  0  2
  8 11  1  0  0  1
  9 10  1  0  0  2
 12 13  1  0  0  1
 13 14  2  0  0  2
 13 15  1  0  0  1
 15 16  1  0  0  1
 16 17  2  0  0  2
  2 18  1  0  0  2
  3 19  1  0  0  2
  4 20  1  0  0  2
  5 21  1  0  0  2
  6 22  1  0  0  2
  7 23  1  0  0  2
  8 24  1  0  0  2
  9 25  1  0  0  2
  9 26  1  0  0  2
 10 27  1  0  0  2
 12 28  1  0  0  2
 15 29  1  0  0  2
M  END
> <MOLECULAR_FORMULA>
C8H12N2O7

> <MOLECULAR_WEIGHT>
248.1

> <NUM_HB_ATOMS>
9  

> <NUM_ROTOR>
1  

> <XLOGP2>
-3.67

$$$$
