### 
### Created by X-TOOL on Fri Sep 26 17:34:26 2014
### 

@<TRIPOS>MOLECULE
1p19_ligand
   34    36     1     0     0
SMALL
GAST_HUCK


@<TRIPOS>ATOM
      1 P          70.3090   39.1240   36.1390 P.3       1 IMP         0.2008
      2 O1P        70.6410   40.4980   36.6280 O.co2     1 IMP        -0.5537
      3 O2P        71.0580   38.1060   36.9580 O.co2     1 IMP        -0.5537
      4 O3P        68.7850   38.8370   36.2130 O.co2     1 IMP        -0.5537
      5 O5         70.7180   38.9220   34.5620 O.3       1 IMP        -0.2734
      6 C6         69.9780   39.6720   33.5770 C.3       1 IMP         0.1072
      7 C7         70.3860   39.5600   32.1180 C.3       1 IMP         0.1182
      8 O8         70.8550   40.9170   31.8510 O.3       1 IMP        -0.3362
      9 C9         71.5260   38.6750   31.6120 C.3       1 IMP         0.1149
     10 O10        71.1570   37.3580   31.2900 O.3       1 IMP        -0.3864
     11 C11        72.0440   39.4210   30.3970 C.3       1 IMP         0.1389
     12 O12        71.2750   39.2470   29.2110 O.3       1 IMP        -0.3835
     13 C13        71.9710   40.8610   30.9630 C.3       1 IMP         0.2003
     14 N9         73.1650   41.0940   31.8020 N.pl3     1 IMP        -0.2045
     15 C8         73.3820   40.9260   33.1510 C.2       1 IMP         0.1004
     16 N7         74.5870   41.2510   33.4910 N.2       1 IMP        -0.3155
     17 C5         75.1990   41.6500   32.3320 C.2       1 IMP         0.1044
     18 C6         76.5220   42.1170   32.0740 C.2       1 IMP         0.2200
     19 O6         77.4370   42.2690   32.8700 O.2       1 IMP        -0.4066
     20 N1         76.7590   42.4310   30.7160 N.am      1 IMP        -0.2042
     21 C2         75.7790   42.2890   29.7420 C.2       1 IMP         0.1273
     22 N3         74.5350   41.8470   29.9950 N.2       1 IMP        -0.2683
     23 C4         74.3260   41.5570   31.2750 C.2       1 IMP         0.1354
     24 H1         70.0541   40.7338   33.8540 H         1 IMP         0.0639
     25 H2         68.9286   39.3495   33.6455 H         1 IMP         0.0639
     26 H3         69.4886   39.3074   31.5342 H         1 IMP         0.0650
     27 H4         72.3107   38.6225   32.3810 H         1 IMP         0.0648
     28 H5         70.4989   37.3732   30.6051 H         1 IMP         0.2100
     29 H6         73.0820   39.1328   30.1747 H         1 IMP         0.0677
     30 H7         71.2575   38.3260   28.9786 H         1 IMP         0.2101
     31 H8         71.8902   41.6044   30.1562 H         1 IMP         0.1001
     32 H9         72.6289   40.5628   33.8488 H         1 IMP         0.1213
     33 H10        77.6621   42.7664   30.4478 H         1 IMP         0.2557
     34 H11        76.0327   42.5504   28.7157 H         1 IMP         0.1493
@<TRIPOS>BOND
     1    1    2 ar 
     2    1    3 ar 
     3    1    4 ar 
     4    1    5 1  
     5    5    6 1  
     6    6    7 1  
     7    7    8 1  
     8    7    9 1  
     9    8   13 1  
    10    9   10 1  
    11    9   11 1  
    12   11   12 1  
    13   11   13 1  
    14   13   14 1  
    15   14   15 1  
    16   14   23 1  
    17   15   16 2  
    18   16   17 1  
    19   17   18 1  
    20   17   23 2  
    21   18   19 2  
    22   18   20 am 
    23   20   21 am 
    24   21   22 2  
    25   22   23 1  
    26    6   24 1  
    27    6   25 1  
    28    7   26 1  
    29    9   27 1  
    30   10   28 1  
    31   11   29 1  
    32   12   30 1  
    33   13   31 1  
    34   15   32 1  
    35   20   33 1  
    36   21   34 1  
@<TRIPOS>SUBSTRUCTURE
     1 IMP         1

