### 
### Created by X-TOOL on Fri Sep 26 17:34:46 2014
### 

@<TRIPOS>MOLECULE
2xbp_ligand
   43    45     1     0     0
SMALL
GAST_HUCK


@<TRIPOS>ATOM
      1 PG         47.5150  -18.9310   58.8850 P.3       1 ATP         0.1879
      2 O1G        47.5810  -19.9710   57.8100 O.co2     1 ATP        -0.6091
      3 O2G        48.0950  -19.3750   60.1840 O.co2     1 ATP        -0.6091
      4 O3G        47.9800  -17.5680   58.4340 O.co2     1 ATP        -0.6091
      5 PB         45.1140  -17.4420   59.6570 P.3       1 ATP         0.3553
      6 O1B        46.0610  -16.4100   60.1810 O.co2     1 ATP        -0.5652
      7 O2B        44.0290  -17.8890   60.5570 O.co2     1 ATP        -0.5652
      8 O3B        45.8940  -18.7500   59.1770 O.3       1 ATP        -0.1546
      9 PA         45.1880  -16.2620   57.0200 P.3       1 ATP         0.3266
     10 O1A        46.2940  -15.3740   57.5120 O.co2     1 ATP        -0.5692
     11 O2A        45.5110  -17.2770   56.0280 O.co2     1 ATP        -0.5692
     12 O3A        44.4570  -16.8920   58.3160 O.3       1 ATP        -0.1171
     13 O5'        43.9820  -15.3270   56.5450 O.3       1 ATP        -0.2441
     14 C5'        43.8560  -15.0490   55.1210 C.3       1 ATP         0.1131
     15 C4'        42.8570  -13.9270   54.9590 C.3       1 ATP         0.1189
     16 O4'        41.5550  -14.3860   55.3620 O.3       1 ATP        -0.3364
     17 C3'        43.0720  -12.6490   55.7260 C.3       1 ATP         0.1149
     18 O3'        44.0470  -11.8040   55.1740 O.3       1 ATP        -0.3864
     19 C2'        41.7030  -12.0590   55.7580 C.3       1 ATP         0.1385
     20 O2'        41.4040  -11.4730   54.4930 O.3       1 ATP        -0.3836
     21 C1'        40.8470  -13.2980   55.9610 C.3       1 ATP         0.2010
     22 N9         40.5480  -13.6320   57.3600 N.pl3     1 ATP        -0.1919
     23 C8         41.2830  -14.4650   58.1730 C.2       1 ATP         0.1123
     24 N7         40.7010  -14.6240   59.3540 N.2       1 ATP        -0.2958
     25 C5         39.5390  -13.8680   59.2720 C.ar      1 ATP         0.1045
     26 C6         38.4240  -13.6800   60.1420 C.ar      1 ATP         0.1298
     27 N6         38.3500  -14.2640   61.3540 N.pl3     1 ATP        -0.3152
     28 N1         37.4180  -12.8730   59.7410 N.ar      1 ATP        -0.2698
     29 C2         37.4640  -12.3380   58.5120 C.ar      1 ATP         0.0533
     30 N3         38.4520  -12.4560   57.6010 N.ar      1 ATP        -0.2714
     31 C4         39.4600  -13.2550   58.0340 C.ar      1 ATP         0.1613
     32 H1         43.5001  -15.9465   54.5940 H         1 ATP         0.0648
     33 H2         44.8304  -14.7452   54.7109 H         1 ATP         0.0648
     34 H3         42.8401  -13.6717   53.8892 H         1 ATP         0.0651
     35 H4         43.3918  -12.8873   56.7511 H         1 ATP         0.0648
     36 H5         43.7911  -11.5608   54.2920 H         1 ATP         0.2100
     37 H6         41.5800  -11.3252   56.5682 H         1 ATP         0.0676
     38 H7         42.0376  -10.7910   54.3035 H         1 ATP         0.2101
     39 H8         39.8909  -13.1475   55.4384 H         1 ATP         0.0996
     40 H9         42.2224  -14.9336   57.8833 H         1 ATP         0.1349
     41 H10        37.5280  -14.1038   61.9536 H         1 ATP         0.1820
     42 H11        39.1155  -14.8707   61.6809 H         1 ATP         0.1820
     43 H12        36.6083  -11.7418   58.2165 H         1 ATP         0.0996
@<TRIPOS>BOND
     1    1    2 ar 
     2    1    3 ar 
     3    1    4 ar 
     4    8    1 1  
     5    5    6 ar 
     6    5    7 ar 
     7    5    8 1  
     8   12    5 1  
     9    9   10 ar 
    10    9   11 ar 
    11    9   12 1  
    12    9   13 1  
    13   13   14 1  
    14   14   15 1  
    15   15   16 1  
    16   15   17 1  
    17   16   21 1  
    18   17   18 1  
    19   17   19 1  
    20   19   20 1  
    21   19   21 1  
    22   21   22 1  
    23   22   23 1  
    24   22   31 1  
    25   23   24 2  
    26   24   25 1  
    27   25   26 ar 
    28   25   31 ar 
    29   26   27 1  
    30   26   28 ar 
    31   28   29 ar 
    32   29   30 ar 
    33   30   31 ar 
    34   14   32 1  
    35   14   33 1  
    36   15   34 1  
    37   17   35 1  
    38   18   36 1  
    39   19   37 1  
    40   20   38 1  
    41   21   39 1  
    42   23   40 1  
    43   27   41 1  
    44   27   42 1  
    45   29   43 1  
@<TRIPOS>SUBSTRUCTURE
     1 ATP         1

