1ch8_ligand

Created by X-TOOL on Fri Sep 26 17:34:15 2014
 41 44  0  0  0  0  0  0  0  0999 V2000
    2.7580   51.6600   41.4730  P 0  0  0  1  0  4
    3.3950   48.1780   44.0340  N 0  0  0  1  0  3
    2.7360   46.9970   44.1830  C 0  0  0  2  0  3
    3.4310   46.0090   44.6700  N 0  0  0  1  0  2
    4.6920   46.5860   44.8750  C 0  0  0  1  0  3
    5.8440   46.0260   45.3740  C 0  0  0  1  0  3
    6.0370   44.8670   45.7490  O 0  0  0  1  0  1
    6.8910   46.9250   45.4190  N 0  0  0  2  0  3
    6.7790   48.2310   45.0130  C 0  0  0  1  0  3
    7.8560   49.0080   45.0860  N 0  0  0  3  0  3
    5.6780   48.7650   44.5450  N 0  0  0  1  0  2
    4.6790   47.8950   44.4950  C 0  0  0  1  0  3
    2.5150   52.1960   40.1150  O 0  0  0  1  0  1
    3.9440   52.3320   42.0570  O 0  0  0  1  0  1
    1.4720   51.8250   42.4470  O 0  0  0  1  0  2
   -2.5070   49.6610   44.9930  P 0  0  0  1  0  4
   -3.6510   50.5980   44.9040  O 0  0  0  1  0  1
   -1.4830   50.2210   45.8970  O 0  0  0  1  0  1
   -2.9090   48.1890   45.5270  O 0  0  0  1  0  2
   -1.7740   49.3180   43.5920  O 0  0  0  1  0  2
   -4.3100   47.4390   45.3140  P 0  0  0  1  0  4
   -4.4220   46.6130   44.0790  O 0  0  0  1  0  1
   -5.3640   48.4750   45.3160  O 0  0  0  1  0  1
   -4.4690   46.5570   46.4900  O 0  0  0  1  0  1
   -0.3920   48.8960   43.9080  C 0  0  0  3  0  4
    0.6590   50.0600   43.9940  C 0  0  0  2  0  4
    1.8580   49.6630   44.6220  O 0  0  0  1  0  2
    2.8840   49.4110   43.6810  C 0  0  0  2  0  4
    2.1790   49.4850   42.3410  C 0  0  0  2  0  4
    3.0060   50.0750   41.3250  O 0  0  0  1  0  2
    1.0570   50.4820   42.6240  C 0  0  0  2  0  4
    1.6876   46.8843   43.9107  H 0  0  0  1  0  1
    7.7745   46.6088   45.7645  H 0  0  0  1  0  1
    7.8019   49.9925   44.7883  H 0  0  0  1  0  1
    8.7442   48.6252   45.4403  H 0  0  0  1  0  1
   -0.0622   48.1968   43.1255  H 0  0  0  1  0  1
   -0.4075   48.3790   44.8788  H 0  0  0  1  0  1
    0.2130   50.9038   44.5408  H 0  0  0  1  0  1
    3.6814   50.1674   43.7245  H 0  0  0  1  0  1
    1.8070   48.5005   42.0210  H 0  0  0  1  0  1
    0.2156   50.3137   41.9358  H 0  0  0  1  0  1
  1 13  2  0  0  2
  1 14  2  0  0  2
 15  1  1  0  0  1
  1 30  1  0  0  1
  2  3  1  0  0  1
  2 12  1  0  0  1
 28  2  1  0  0  2
  3  4  2  0  0  1
  5  4  1  0  0  1
  5  6  1  0  0  1
 12  5  2  0  0  1
  6  7  2  0  0  2
  6  8  1  0  0  1
  9  8  1  0  0  1
  9 10  1  0  0  2
 11  9  2  0  0  1
 12 11  1  0  0  1
 31 15  1  0  0  1
 16 17  2  0  0  2
 16 18  2  0  0  2
 16 19  1  0  0  2
 20 16  1  0  0  2
 19 21  1  0  0  2
 25 20  1  0  0  2
 21 22  2  0  0  2
 21 23  2  0  0  2
 21 24  2  0  0  2
 26 25  1  0  0  2
 27 26  1  0  0  1
 26 31  1  0  0  1
 27 28  1  0  0  1
 28 29  1  0  0  1
 29 30  1  0  0  1
 29 31  1  0  0  1
  3 32  1  0  0  2
  8 33  1  0  0  2
 10 34  1  0  0  2
 10 35  1  0  0  2
 25 36  1  0  0  2
 25 37  1  0  0  2
 26 38  1  0  0  2
 28 39  1  0  0  2
 29 40  1  0  0  2
 31 41  1  0  0  2
M  END
> <MOLECULAR_FORMULA>
C10H10N5O13P3

> <MOLECULAR_WEIGHT>
501.1

> <NUM_HB_ATOMS>
18 

> <NUM_ROTOR>
5  

> <XLOGP2>
-3.89

$$$$
