### 
### Created by X-TOOL on Sat Nov 28 16:10:53 2015
### 

@<TRIPOS>MOLECULE
4umb_ligand
   14    13     1     0     0
SMALL
GAST_HUCK


@<TRIPOS>ATOM
      1 C1         45.2510  -22.7690   -3.1840 C.2       1 MOL         0.0682
      2 O1         44.5030  -23.1800   -2.2720 O.co2     1 MOL        -0.5661
      3 O2'        45.9830  -21.7570   -3.1410 O.co2     1 MOL        -0.5661
      4 C2         45.2140  -23.5940   -4.4550 C.3       1 MOL         0.1382
      5 C3         43.9030  -23.2080   -5.1490 C.3       1 MOL        -0.0221
      6 O2         46.3310  -23.3010   -5.3120 O.3       1 MOL        -0.2593
      7 P          46.6820  -24.3070   -6.5450 P.3       1 MOL         0.2036
      8 O1P        46.1840  -23.4840   -7.8140 O.co2     1 MOL        -0.5536
      9 O2P        48.2820  -24.3260   -6.6820 O.co2     1 MOL        -0.5536
     10 O3P        45.9440  -25.6160   -6.4710 O.co2     1 MOL        -0.5536
     11 H          45.2181  -24.6664   -4.2102 H         1 MOL         0.0817
     12 H          43.8054  -23.7722   -6.0883 H         1 MOL         0.0276
     13 H          43.9074  -22.1300   -5.3676 H         1 MOL         0.0276
     14 H          43.0553  -23.4449   -4.4893 H         1 MOL         0.0276
@<TRIPOS>BOND
     1    1    2 ar 
     2    1    3 ar 
     3    1    4 1  
     4    4    5 1  
     5    4    6 1  
     6    6    7 1  
     7    7    8 ar 
     8    7    9 ar 
     9    7   10 ar 
    10    4   11 1  
    11    5   12 1  
    12    5   13 1  
    13    5   14 1  
@<TRIPOS>SUBSTRUCTURE
     1 MOL         1

