### 
### Created by X-TOOL on Fri Sep 26 17:34:37 2014
### 

@<TRIPOS>MOLECULE
2e5y_ligand
   43    45     1     0     0
SMALL
GAST_HUCK


@<TRIPOS>ATOM
      1 PG         24.3820   13.9950    9.7310 P.3       1 ATP         0.1879
      2 O1G        23.8720   12.9180   10.6960 O.co2     1 ATP        -0.6091
      3 O2G        23.2910   14.9340    9.3410 O.co2     1 ATP        -0.6091
      4 O3G        25.1830   13.4800    8.5500 O.co2     1 ATP        -0.6091
      5 PB         26.3190   16.1500   10.1240 P.3       1 ATP         0.3553
      6 O1B        26.1120   16.4690    8.6530 O.co2     1 ATP        -0.5652
      7 O2B        27.6910   16.1670   10.6880 O.co2     1 ATP        -0.5652
      8 O3B        25.5190   14.8130   10.5180 O.3       1 ATP        -0.1546
      9 PA         25.8500   18.7340   11.3740 P.3       1 ATP         0.3266
     10 O1A        27.0770   18.8040   12.2340 O.co2     1 ATP        -0.5692
     11 O2A        25.8890   19.5080   10.0700 O.co2     1 ATP        -0.5692
     12 O3A        25.4790   17.2150   11.0070 O.3       1 ATP        -0.1171
     13 O5'        24.4920   19.2300   12.1040 O.3       1 ATP        -0.2441
     14 C5'        23.3000   19.5510   11.3900 C.3       1 ATP         0.1131
     15 C4'        22.1560   19.6980   12.3910 C.3       1 ATP         0.1189
     16 O4'        21.7830   18.3960   12.8280 O.3       1 ATP        -0.3364
     17 C3'        22.6790   20.4250   13.6090 C.3       1 ATP         0.1149
     18 O3'        21.4900   21.0480   14.0690 O.3       1 ATP        -0.3864
     19 C2'        22.8330   19.4110   14.7060 C.3       1 ATP         0.1385
     20 O2'        22.6920   19.8860   16.0490 O.3       1 ATP        -0.3836
     21 C1'        22.0670   18.1990   14.2330 C.3       1 ATP         0.2010
     22 N9         22.6830   16.9140   14.4720 N.pl3     1 ATP        -0.1919
     23 C8         23.7800   16.4020   13.6830 C.2       1 ATP         0.1123
     24 N7         24.0280   15.1110   14.2240 N.2       1 ATP        -0.2958
     25 C5         23.2260   14.9010   15.3750 C.ar      1 ATP         0.1045
     26 C6         23.0860   13.7380   16.2970 C.ar      1 ATP         0.1298
     27 N6         23.6640   12.5210   15.9050 N.pl3     1 ATP        -0.3152
     28 N1         22.0020   13.9280   17.2340 N.ar      1 ATP        -0.2698
     29 C2         21.1440   15.1030   17.3890 C.ar      1 ATP         0.0533
     30 N3         21.2840   16.2200   16.4710 N.ar      1 ATP        -0.2714
     31 C4         22.3690   16.0590   15.5380 C.ar      1 ATP         0.1613
     32 H1         23.0672   18.7464   10.6770 H         1 ATP         0.0648
     33 H2         23.4382   20.4959   10.8442 H         1 ATP         0.0648
     34 H3         21.3045   20.2303   11.9420 H         1 ATP         0.0651
     35 H4         23.5504   21.0724   13.4317 H         1 ATP         0.0648
     36 H5         21.6802   21.5518   14.8516 H         1 ATP         0.2100
     37 H6         23.8884   19.1027   14.6731 H         1 ATP         0.0676
     38 H7         21.8256   20.2586   16.1626 H         1 ATP         0.2101
     39 H8         21.1110   18.1883   14.7769 H         1 ATP         0.0996
     40 H9         24.2987   16.8933   12.8611 H         1 ATP         0.1349
     41 H10        23.5884   11.6947   16.5153 H         1 ATP         0.1820
     42 H11        24.1639   12.4539   15.0069 H         1 ATP         0.1820
     43 H12        20.4082   15.1397   18.1842 H         1 ATP         0.0996
@<TRIPOS>BOND
     1    1    2 ar 
     2    1    3 ar 
     3    1    4 ar 
     4    8    1 1  
     5    5    6 ar 
     6    5    7 ar 
     7    5    8 1  
     8   12    5 1  
     9    9   10 ar 
    10    9   11 ar 
    11    9   12 1  
    12    9   13 1  
    13   13   14 1  
    14   14   15 1  
    15   15   16 1  
    16   15   17 1  
    17   16   21 1  
    18   17   18 1  
    19   17   19 1  
    20   19   20 1  
    21   19   21 1  
    22   21   22 1  
    23   22   23 1  
    24   22   31 1  
    25   23   24 2  
    26   24   25 1  
    27   25   26 ar 
    28   25   31 ar 
    29   26   27 1  
    30   26   28 ar 
    31   28   29 ar 
    32   29   30 ar 
    33   30   31 ar 
    34   14   32 1  
    35   14   33 1  
    36   15   34 1  
    37   17   35 1  
    38   18   36 1  
    39   19   37 1  
    40   20   38 1  
    41   21   39 1  
    42   23   40 1  
    43   27   41 1  
    44   27   42 1  
    45   29   43 1  
@<TRIPOS>SUBSTRUCTURE
     1 ATP         1

