### 
### Created by X-TOOL on Fri Sep 26 17:34:59 2014
### 

@<TRIPOS>MOLECULE
4loi_ligand
   68    74     1     0     0
SMALL
GAST_HUCK


@<TRIPOS>ATOM
      1 OAC        49.2200   32.7020   15.9940 O.2       1 1YC        -0.3594
      2 CBC        48.4280   33.6100   15.7410 C.2       1 1YC         0.2628
      3 NAT        48.9710   34.7900   15.2670 N.am      1 1YC        -0.2478
      4 CBA        48.1240   35.8310   14.9510 C.cat     1 1YC         0.2041
      5 NAA        48.6480   36.9590   14.4880 N.pl3     1 1YC        -0.3327
      6 NAS        46.7940   35.6880   15.1620 N.pl3     1 1YC        -0.1901
      7 CBG        46.2810   34.5290   15.6510 C.2       1 1YC         0.3268
      8 CBE        47.0890   33.5040   15.9400 C.2       1 1YC         0.2558
      9 NAR        46.3250   32.5230   16.4360 N.2       1 1YC        -0.1929
     10 CAL        45.0490   32.9280   16.4110 C.2       1 1YC         0.1855
     11 NBQ        45.0340   34.1790   15.9610 N.pl3     1 1YC        -0.0950
     12 CBO        43.8120   34.9970   15.7520 C.3       1 1YC         0.2273
     13 OAX        43.0640   35.0900   16.9410 O.3       1 1YC        -0.3344
     14 CBK        41.6550   34.7840   16.6610 C.3       1 1YC         0.1194
     15 CAN        41.2190   33.4410   17.2800 C.3       1 1YC         0.1124
     16 OP3        42.0600   32.3970   16.8430 O.3       1 1YC        -0.2514
     17 P2'        41.7180   30.8270   17.1060 P.3       1 1YC         0.2558
     18 O2'        40.7890   30.4330   15.9190 O.3       1 1YC        -0.2425
     19 OP2        40.9330   30.7340   18.4020 O.co2     1 1YC        -0.6177
     20 OP1        43.0660   30.1070   17.0470 O.co2     1 1YC        -0.6177
     21 CBI        41.5420   34.7330   15.1800 C.3       1 1YC         0.1205
     22 OAE        41.2700   36.0430   14.6970 O.3       1 1YC        -0.3860
     23 CBM        42.9110   34.3040   14.7660 C.3       1 1YC         0.1796
     24 OAZ        43.1900   34.7490   13.4180 O.3       1 1YC        -0.2424
     25 PBS        43.3630   33.6570   12.2480 P.3       1 1YC         0.2558
     26 OAH        44.8430   33.1700   12.3960 O.co2     1 1YC        -0.6177
     27 OAI        43.0470   34.2480   10.8840 O.co2     1 1YC        -0.6177
     28 O5'        42.4080   32.3640   12.5440 O.3       1 1YC        -0.2514
     29 C5'        41.1940   32.3330   11.9500 C.3       1 1YC         0.1124
     30 C4'        40.4290   31.1140   12.4570 C.3       1 1YC         0.1192
     31 O4'        41.2410   29.9150   12.4060 O.3       1 1YC        -0.3361
     32 C3'        40.1300   31.3330   13.8970 C.3       1 1YC         0.1203
     33 O3'        38.9420   30.6430   14.2780 O.3       1 1YC        -0.3860
     34 C2'        41.2430   30.7380   14.5990 C.3       1 1YC         0.1774
     35 C1'        41.4910   29.5040   13.7200 C.3       1 1YC         0.2064
     36 N9         42.8730   29.0910   13.6900 N.pl3     1 1YC        -0.1915
     37 C8         43.9350   29.8180   13.2970 C.2       1 1YC         0.1123
     38 N7         45.0480   29.0800   13.4520 N.2       1 1YC        -0.2958
     39 C5         44.6860   27.8800   13.9430 C.ar      1 1YC         0.1045
     40 C4         43.3340   27.8940   14.0780 C.ar      1 1YC         0.1613
     41 N3         42.6690   26.8300   14.5670 N.ar      1 1YC        -0.2714
     42 C2         43.4120   25.6940   14.8900 C.ar      1 1YC         0.0533
     43 N1         44.7820   25.6880   14.7340 N.ar      1 1YC        -0.2698
     44 C6         45.3950   26.7780   14.2570 C.ar      1 1YC         0.1298
     45 N6         46.7310   26.7870   14.0940 N.pl3     1 1YC        -0.3152
     46 H1         49.9601   34.8866   15.1554 H         1 1YC         0.1819
     47 H2         48.0348   37.7502   14.2453 H         1 1YC         0.1774
     48 H3         49.6679   37.0433   14.3714 H         1 1YC         0.1774
     49 H4         46.1605   36.4714   14.9481 H         1 1YC         0.2519
     50 H5         44.1813   32.3397   16.7057 H         1 1YC         0.1823
     51 H6         44.0909   35.9981   15.3915 H         1 1YC         0.1026
     52 H7         41.0145   35.5836   17.0614 H         1 1YC         0.0651
     53 H8         40.1843   33.2224   16.9774 H         1 1YC         0.0647
     54 H9         41.2729   33.5137   18.3763 H         1 1YC         0.0647
     55 H10        40.7695   34.0255   14.8443 H         1 1YC         0.0652
     56 H11        41.1958   36.0211   13.7501 H         1 1YC         0.2100
     57 H12        43.0214   33.2113   14.8280 H         1 1YC         0.0742
     58 H13        41.3179   32.2642   10.8592 H         1 1YC         0.0647
     59 H14        40.6373   33.2485   12.1988 H         1 1YC         0.0647
     60 H15        39.5061   30.9787   11.8740 H         1 1YC         0.0651
     61 H16        40.0376   32.4058   14.1219 H         1 1YC         0.0652
     62 H17        38.7699   30.7962   15.1997 H         1 1YC         0.2100
     63 H18        42.1274   31.3907   14.6403 H         1 1YC         0.0741
     64 H19        40.8405   28.6734   14.0314 H         1 1YC         0.1000
     65 H20        43.8988   30.8374   12.9157 H         1 1YC         0.1349
     66 H21        42.9090   24.8105   15.2660 H         1 1YC         0.0996
     67 H22        47.2843   25.9510   14.3304 H         1 1YC         0.1820
     68 H23        47.2001   27.6299   13.7329 H         1 1YC         0.1820
@<TRIPOS>BOND
     1    1    2 2  
     2    2    3 am 
     3    2    8 1  
     4    3    4 ar 
     5    4    5 ar 
     6    4    6 ar 
     7    6    7 1  
     8    7    8 2  
     9    7   11 1  
    10    8    9 1  
    11    9   10 2  
    12   10   11 1  
    13   11   12 1  
    14   12   13 1  
    15   12   23 1  
    16   13   14 1  
    17   14   15 1  
    18   14   21 1  
    19   15   16 1  
    20   16   17 1  
    21   17   18 1  
    22   17   19 ar 
    23   17   20 ar 
    24   18   34 1  
    25   21   22 1  
    26   21   23 1  
    27   23   24 1  
    28   24   25 1  
    29   25   26 ar 
    30   25   27 ar 
    31   25   28 1  
    32   28   29 1  
    33   29   30 1  
    34   30   31 1  
    35   30   32 1  
    36   31   35 1  
    37   32   33 1  
    38   32   34 1  
    39   34   35 1  
    40   35   36 1  
    41   36   37 1  
    42   36   40 1  
    43   37   38 2  
    44   38   39 1  
    45   39   40 ar 
    46   39   44 ar 
    47   40   41 ar 
    48   41   42 ar 
    49   42   43 ar 
    50   43   44 ar 
    51   44   45 1  
    52    3   46 1  
    53    5   47 1  
    54    5   48 1  
    55    6   49 1  
    56   10   50 1  
    57   12   51 1  
    58   14   52 1  
    59   15   53 1  
    60   15   54 1  
    61   21   55 1  
    62   22   56 1  
    63   23   57 1  
    64   29   58 1  
    65   29   59 1  
    66   30   60 1  
    67   32   61 1  
    68   33   62 1  
    69   34   63 1  
    70   35   64 1  
    71   37   65 1  
    72   42   66 1  
    73   45   67 1  
    74   45   68 1  
@<TRIPOS>SUBSTRUCTURE
     1 1YC         1

