### 
### Created by X-TOOL on Fri Sep 26 17:34:47 2014
### 

@<TRIPOS>MOLECULE
3n7o_ligand
   42    44     1     0     0
SMALL
GAST_HUCK


@<TRIPOS>ATOM
      1 C10        -9.1710  -45.2550  -55.3240 C.2       1 N7O        -0.0613
      2 C13        -5.4160  -45.1750  -54.7110 C.ar      1 N7O        -0.0399
      3 C20       -14.9290  -46.8920  -57.3610 C.2       1 N7O        -0.0059
      4 C22       -16.3170  -47.6280  -55.4240 C.ar      1 N7O         0.0353
      5 C24       -17.3220  -47.6490  -53.2360 C.ar      1 N7O        -0.0564
      6 C28       -15.6110  -46.4310  -55.1790 C.ar      1 N7O        -0.0138
      7 C01       -15.3660  -43.4430  -58.5240 C.3       1 N7O         0.0057
      8 P02       -14.6630  -43.2090  -56.9060 P.3       1 N7O         0.0124
      9 O03       -15.6900  -42.7460  -55.9340 O.co2     1 N7O        -0.6164
     10 O04       -13.5540  -42.1140  -57.1180 O.co2     1 N7O        -0.6164
     11 C05       -13.9020  -44.7680  -56.3070 C.3       1 N7O         0.1440
     12 C06       -12.4850  -44.9430  -56.9670 C.2       1 N7O         0.2427
     13 O07       -12.3190  -45.2640  -58.1180 O.2       1 N7O        -0.3746
     14 N08       -11.4550  -45.0920  -55.9930 N.am      1 N7O        -0.2255
     15 C09       -10.0790  -45.2930  -56.3110 C.2       1 N7O         0.0392
     16 C11        -7.7090  -45.2020  -55.5410 C.ar      1 N7O        -0.0633
     17 C12        -6.7840  -45.2150  -54.4840 C.ar      1 N7O        -0.0754
     18 C14        -4.9690  -45.1470  -56.0280 C.ar      1 N7O         0.1550
     19 F15        -3.6660  -45.1120  -56.2790 F         1 N7O        -0.1919
     20 C16        -5.8670  -45.1290  -57.0910 C.ar      1 N7O         0.1551
     21 F17        -5.3870  -45.0840  -58.3430 F         1 N7O        -0.1869
     22 C18        -7.2370  -45.1660  -56.8600 C.ar      1 N7O        -0.0382
     23 C19       -14.7910  -46.0040  -56.3470 C.2       1 N7O        -0.0042
     24 S21       -15.9770  -48.2050  -57.0100 S.3       1 N7O        -0.0517
     25 C23       -17.1500  -48.2370  -54.4800 C.ar      1 N7O        -0.0495
     26 C25       -16.6180  -46.4620  -53.0080 C.ar      1 N7O         0.0304
     27 CL26      -16.7660  -45.7410  -51.4420 Cl        1 N7O        -0.0776
     28 C27       -15.7980  -45.8520  -53.9260 C.ar      1 N7O        -0.0512
     29 H1         -9.5338  -45.2637  -54.2972 H         1 N7O         0.0229
     30 H2         -4.7145  -45.1658  -53.8846 H         1 N7O         0.0570
     31 H3        -14.4187  -46.7820  -58.3167 H         1 N7O         0.0640
     32 H4        -17.9667  -48.0853  -52.4816 H         1 N7O         0.0575
     33 H5        -16.1609  -44.2016  -58.4722 H         1 N7O         0.0432
     34 H6        -14.5827  -43.7797  -59.2190 H         1 N7O         0.0432
     35 H7        -15.7891  -42.4924  -58.8810 H         1 N7O         0.0432
     36 H8        -13.7106  -44.6064  -55.2359 H         1 N7O         0.0863
     37 H9        -11.7128  -45.0533  -55.0276 H         1 N7O         0.2408
     38 H10        -9.7702  -45.4746  -57.3394 H         1 N7O         0.1084
     39 H11        -7.1487  -45.2574  -53.4641 H         1 N7O         0.0487
     40 H12        -7.9329  -45.1670  -57.6911 H         1 N7O         0.0502
     41 H13       -17.6585  -49.1639  -54.7195 H         1 N7O         0.0570
     42 H14       -15.2981  -44.9232  -53.6761 H         1 N7O         0.0583
@<TRIPOS>BOND
     1    1   15 2  
     2   16    1 1  
     3   17    2 ar 
     4    2   18 ar 
     5   23    3 2  
     6    3   24 1  
     7    6    4 ar 
     8    4   24 1  
     9    4   25 ar 
    10   25    5 ar 
    11    5   26 ar 
    12   23    6 1  
    13    6   28 ar 
    14    8    7 1  
    15    8    9 ar 
    16    8   10 ar 
    17   11    8 1  
    18   12   11 1  
    19   11   23 1  
    20   12   13 2  
    21   14   12 am 
    22   15   14 1  
    23   16   17 ar 
    24   16   22 ar 
    25   18   19 1  
    26   18   20 ar 
    27   20   21 1  
    28   20   22 ar 
    29   26   27 1  
    30   26   28 ar 
    31    1   29 1  
    32    2   30 1  
    33    3   31 1  
    34    5   32 1  
    35    7   33 1  
    36    7   34 1  
    37    7   35 1  
    38   11   36 1  
    39   14   37 1  
    40   15   38 1  
    41   17   39 1  
    42   22   40 1  
    43   25   41 1  
    44   28   42 1  
@<TRIPOS>SUBSTRUCTURE
     1 N7O         1

