### 
### Created by X-TOOL on Fri Sep 26 17:34:41 2014
### 

@<TRIPOS>MOLECULE
3eeb_ligand
   42    42     1     0     0
SMALL
GAST_HUCK


@<TRIPOS>ATOM
      1 C1        -49.0310   -2.3850    4.0380 C.3       1 IHP         0.1556
      2 C2        -47.7500   -2.4200    4.8560 C.3       1 IHP         0.1556
      3 C3        -46.9100   -3.6170    4.4390 C.3       1 IHP         0.1556
      4 C4        -46.5930   -3.5900    2.9330 C.3       1 IHP         0.1556
      5 C5        -47.9150   -3.5640    2.1590 C.3       1 IHP         0.1556
      6 C6        -48.7090   -2.3200    2.5500 C.3       1 IHP         0.1556
      7 O11       -49.7780   -1.2370    4.3950 O.3       1 IHP        -0.2668
      8 P1        -51.0690   -1.3070    5.3700 P.3       1 IHP         0.2013
      9 O21       -51.6490    0.0700    5.1620 O.co2     1 IHP        -0.5537
     10 O31       -50.4940   -1.5660    6.7270 O.co2     1 IHP        -0.5537
     11 O41       -51.9240   -2.4330    4.8630 O.co2     1 IHP        -0.5537
     12 O12       -46.9970   -1.2400    4.6200 O.3       1 IHP        -0.2668
     13 P2        -46.7620   -0.1240    5.7610 P.3       1 IHP         0.2013
     14 O22       -46.5650    1.1140    4.9410 O.co2     1 IHP        -0.5537
     15 O32       -48.0490   -0.1500    6.5440 O.co2     1 IHP        -0.5537
     16 O42       -45.5840   -0.5790    6.5810 O.co2     1 IHP        -0.5537
     17 O13       -45.7340   -3.6460    5.2340 O.3       1 IHP        -0.2668
     18 P3        -45.3100   -4.9800    6.0210 P.3       1 IHP         0.2013
     19 O23       -43.9010   -5.2540    5.5400 O.co2     1 IHP        -0.5537
     20 O33       -46.3530   -5.9890    5.5820 O.co2     1 IHP        -0.5537
     21 O43       -45.3300   -4.5880    7.4760 O.co2     1 IHP        -0.5537
     22 O14       -45.8110   -4.7400    2.6150 O.3       1 IHP        -0.2668
     23 P4        -44.2810   -4.6570    2.1060 P.3       1 IHP         0.2013
     24 O24       -43.4930   -4.2030    3.3060 O.co2     1 IHP        -0.5537
     25 O34       -43.9550   -6.0630    1.6450 O.co2     1 IHP        -0.5537
     26 O44       -44.3270   -3.6960    0.9250 O.co2     1 IHP        -0.5537
     27 O15       -47.7300   -3.5570    0.7450 O.3       1 IHP        -0.2668
     28 P5        -48.4700   -4.5970   -0.2310 P.3       1 IHP         0.2013
     29 O25       -48.9330   -5.6980    0.6850 O.co2     1 IHP        -0.5537
     30 O35       -49.6010   -3.8830   -0.9170 O.co2     1 IHP        -0.5537
     31 O45       -47.3370   -5.0090   -1.1480 O.co2     1 IHP        -0.5537
     32 O16       -49.9200   -2.2030    1.7980 O.3       1 IHP        -0.2668
     33 P6        -50.2140   -0.9490    0.8190 P.3       1 IHP         0.2013
     34 O26       -49.7230   -1.3300   -0.5520 O.co2     1 IHP        -0.5537
     35 O36       -51.7220   -0.8140    0.8790 O.co2     1 IHP        -0.5537
     36 O46       -49.4430    0.2120    1.3920 O.co2     1 IHP        -0.5537
     37 H1        -49.6210   -3.2899    4.2453 H         1 IHP         0.0710
     38 H2        -47.9989   -2.4943    5.9249 H         1 IHP         0.0710
     39 H3        -47.4857   -4.5319    4.6425 H         1 IHP         0.0710
     40 H4        -46.0166   -2.6852    2.6902 H         1 IHP         0.0710
     41 H5        -48.4916   -4.4605    2.4305 H         1 IHP         0.0710
     42 H6        -48.0900   -1.4319    2.3548 H         1 IHP         0.0710
@<TRIPOS>BOND
     1    1    2 1  
     2    1    6 1  
     3    1    7 1  
     4    2    3 1  
     5    2   12 1  
     6    3    4 1  
     7    3   17 1  
     8    4    5 1  
     9    4   22 1  
    10    5    6 1  
    11    5   27 1  
    12    6   32 1  
    13    7    8 1  
    14    8    9 ar 
    15    8   10 ar 
    16    8   11 ar 
    17   12   13 1  
    18   13   14 ar 
    19   13   15 ar 
    20   13   16 ar 
    21   17   18 1  
    22   18   19 ar 
    23   18   20 ar 
    24   18   21 ar 
    25   22   23 1  
    26   23   24 ar 
    27   23   25 ar 
    28   23   26 ar 
    29   27   28 1  
    30   28   29 ar 
    31   28   30 ar 
    32   28   31 ar 
    33   32   33 1  
    34   33   34 ar 
    35   33   35 ar 
    36   33   36 ar 
    37    1   37 1  
    38    2   38 1  
    39    3   39 1  
    40    4   40 1  
    41    5   41 1  
    42    6   42 1  
@<TRIPOS>SUBSTRUCTURE
     1 IHP         1

