### 
### Created by X-TOOL on Fri Sep 26 17:34:25 2014
### 

@<TRIPOS>MOLECULE
1v1m_ligand
   42    43     1     0     0
SMALL
GAST_HUCK


@<TRIPOS>ATOM
      1 N1         77.0360    0.6090   11.1920 N.ar      1 TDP        -0.2938
      2 C2         77.2770    1.7880   11.7620 C.ar      1 TDP         0.0758
      3 C2A        77.4390    1.9590   13.2600 C.3       1 TDP        -0.0029
      4 N3         77.3610    2.8970   10.9710 N.ar      1 TDP        -0.2610
      5 C4         77.2890    2.8230    9.6240 C.ar      1 TDP         0.1223
      6 N4         77.4370    3.9870    8.9510 N.pl3     1 TDP        -0.3187
      7 C5         77.0120    1.5830    9.0030 C.ar      1 TDP         0.0328
      8 C6         76.9010    0.4930    9.8570 C.ar      1 TDP         0.0074
      9 C35        76.8960    1.3740    7.4660 C.3       1 TDP         0.0562
     10 N3         75.6220    1.9350    7.0040 N.2       1 TDP        -0.2745
     11 C2         75.7320    3.2610    6.3570 C.2       1 TDP         0.1352
     12 S1         73.9910    3.5920    5.9110 S.3       1 TDP         0.1156
     13 C5         73.3250    2.1140    6.5260 C.2       1 TDP         0.1730
     14 C4         74.3850    1.3610    7.0790 C.2       1 TDP         0.1309
     15 C4A        74.1640   -0.0290    7.6780 C.3       1 TDP         0.0228
     16 C5A        71.8700    1.8700    6.4450 C.3       1 TDP         0.0829
     17 C5B        71.0800    2.9800    7.2100 C.3       1 TDP         0.1135
     18 O5G        69.6840    2.6740    7.1470 O.3       1 TDP        -0.2401
     19 P1         68.6020    3.7010    7.6550 P.3       1 TDP         0.3279
     20 O11        68.7530    5.0260    6.7070 O.3       1 TDP        -0.1548
     21 O12        69.0390    4.1450    9.0110 O.co2     1 TDP        -0.5556
     22 O13        67.2820    3.0810    7.5180 O.co2     1 TDP        -0.5556
     23 P2         68.4430    5.1190    5.0550 P.3       1 TDP         0.2069
     24 O21        69.8320    4.8360    4.3350 O.co2     1 TDP        -0.5891
     25 O22        67.3170    4.0740    4.7440 O.co2     1 TDP        -0.5891
     26 O23        67.9690    6.5360    4.8620 O.co2     1 TDP        -0.5891
     27 H1         77.3460    0.9800   13.7529 H         1 TDP         0.0449
     28 H2         76.6586    2.6356   13.6384 H         1 TDP         0.0449
     29 H3         78.4299    2.3852   13.4754 H         1 TDP         0.0449
     30 H4         77.3921    3.9963    7.9220 H         1 TDP         0.1789
     31 H5         77.5946    4.8641    9.4675 H         1 TDP         0.1789
     32 H6         76.6988   -0.4845    9.4344 H         1 TDP         0.0791
     33 H7         76.9308    0.2989    7.2361 H         1 TDP         0.0563
     34 H8         77.7289    1.8843    6.9602 H         1 TDP         0.0563
     35 H9         76.6152    3.8760    6.1908 H         1 TDP         0.1655
     36 H10        73.0945   -0.2821    7.6323 H         1 TDP         0.0599
     37 H11        74.4974   -0.0338    8.7262 H         1 TDP         0.0599
     38 H12        74.7411   -0.7707    7.1063 H         1 TDP         0.0599
     39 H13        71.6426    0.8914    6.8928 H         1 TDP         0.0773
     40 H14        71.5621    1.8705    5.3890 H         1 TDP         0.0773
     41 H15        71.2664    3.9573    6.7409 H         1 TDP         0.0687
     42 H16        71.4056    3.0093    8.2603 H         1 TDP         0.0687
@<TRIPOS>BOND
     1    1    2 ar 
     2    1    8 ar 
     3    2    3 1  
     4    2    4 ar 
     5    4    5 ar 
     6    5    6 1  
     7    5    7 ar 
     8    7    8 ar 
     9    7    9 1  
    10    9   10 1  
    11   10   11 2  
    12   10   14 1  
    13   11   12 1  
    14   12   13 1  
    15   13   14 2  
    16   13   16 1  
    17   14   15 1  
    18   16   17 1  
    19   17   18 1  
    20   18   19 1  
    21   19   20 1  
    22   19   21 ar 
    23   19   22 ar 
    24   20   23 1  
    25   23   24 ar 
    26   23   25 ar 
    27   23   26 ar 
    28    3   27 1  
    29    3   28 1  
    30    3   29 1  
    31    6   30 1  
    32    6   31 1  
    33    8   32 1  
    34    9   33 1  
    35    9   34 1  
    36   11   35 1  
    37   15   36 1  
    38   15   37 1  
    39   15   38 1  
    40   16   39 1  
    41   16   40 1  
    42   17   41 1  
    43   17   42 1  
@<TRIPOS>SUBSTRUCTURE
     1 TDP         1

