### 
### Created by X-TOOL on Fri Sep 26 17:34:33 2014
### 

@<TRIPOS>MOLECULE
2f94_ligand
   39    38     1     0     0
SMALL
GAST_HUCK


@<TRIPOS>ATOM
      1 P1         15.4920   75.7290   24.5860 P.3       1 BFQ         0.1101
      2 O2         16.8770   75.6010   24.0480 O.co2     1 BFQ        -0.5594
      3 O3         15.1810   74.5550   25.5790 O.co2     1 BFQ        -0.5594
      4 O5         14.3750   75.6690   23.4600 O.co2     1 BFQ        -0.5594
      5 C7         15.2460   77.2840   25.5040 C.3       1 BFQ         0.2095
      6 P8         16.5150   77.3950   26.8230 P.3       1 BFQ         0.1101
      7 O9         17.9200   77.3270   26.3520 O.co2     1 BFQ        -0.5594
      8 O10        16.1530   78.7360   27.6040 O.co2     1 BFQ        -0.5594
      9 O12        16.1660   76.2030   27.8180 O.co2     1 BFQ        -0.5594
     10 O14        13.9520   77.2860   26.1050 O.3       1 BFQ        -0.3593
     11 C16        15.3800   78.5040   24.5380 C.3       1 BFQ         0.0479
     12 C19        14.1310   79.4740   24.5990 C.3       1 BFQ        -0.0267
     13 N22        14.1820   80.5680   25.6150 N.4       1 BFQ         0.2332
     14 C23        15.4940   81.2280   25.7410 C.3       1 BFQ        -0.0322
     15 C26        15.4860   82.6840   25.2180 C.3       1 BFQ        -0.0125
     16 C29        16.7280   82.8060   24.3040 C.3       1 BFQ        -0.0485
     17 C32        17.0970   84.2520   23.9780 C.3       1 BFQ        -0.0557
     18 C35        18.2100   84.2310   22.8980 C.3       1 BFQ        -0.0653
     19 C39        13.6630   80.1560   26.9250 C.3       1 BFQ        -0.0431
     20 H1         13.8807   76.5513   26.7030 H         1 BFQ         0.2133
     21 H2         15.4833   78.1283   23.5094 H         1 BFQ         0.0375
     22 H3         16.2805   79.0728   24.8128 H         1 BFQ         0.0375
     23 H4         13.2429   78.8613   24.8129 H         1 BFQ         0.0816
     24 H5         14.0237   79.9424   23.6095 H         1 BFQ         0.0816
     25 H6         13.5512   81.2775   25.2763 H         1 BFQ         0.2030
     26 H7         16.2337   80.6521   25.1656 H         1 BFQ         0.0814
     27 H8         15.7820   81.2376   26.8026 H         1 BFQ         0.0814
     28 H9         15.5552   83.3932   26.0560 H         1 BFQ         0.0317
     29 H10        14.5676   82.8811   24.6456 H         1 BFQ         0.0317
     30 H11        16.5217   82.2772   23.3618 H         1 BFQ         0.0267
     31 H12        17.5823   82.3331   24.8105 H         1 BFQ         0.0267
     32 H13        17.4651   84.7565   24.8835 H         1 BFQ         0.0263
     33 H14        16.2146   84.7850   23.5942 H         1 BFQ         0.0263
     34 H15        18.4946   85.2629   22.6447 H         1 BFQ         0.0230
     35 H16        17.8371   83.7219   21.9970 H         1 BFQ         0.0230
     36 H17        19.0876   83.6934   23.2863 H         1 BFQ         0.0230
     37 H18        12.6856   79.6683   26.7953 H         1 BFQ         0.0777
     38 H19        13.5488   81.0405   27.5689 H         1 BFQ         0.0777
     39 H20        14.3656   79.4504   27.3924 H         1 BFQ         0.0777
@<TRIPOS>BOND
     1    1    2 ar 
     2    1    3 ar 
     3    1    4 ar 
     4    1    5 1  
     5    5    6 1  
     6    5   10 1  
     7    5   11 1  
     8    6    7 ar 
     9    6    8 ar 
    10    6    9 ar 
    11   11   12 1  
    12   12   13 1  
    13   13   14 1  
    14   13   19 1  
    15   14   15 1  
    16   15   16 1  
    17   16   17 1  
    18   17   18 1  
    19   10   20 1  
    20   11   21 1  
    21   11   22 1  
    22   12   23 1  
    23   12   24 1  
    24   13   25 1  
    25   14   26 1  
    26   14   27 1  
    27   15   28 1  
    28   15   29 1  
    29   16   30 1  
    30   16   31 1  
    31   17   32 1  
    32   17   33 1  
    33   18   34 1  
    34   18   35 1  
    35   18   36 1  
    36   19   37 1  
    37   19   38 1  
    38   19   39 1  
@<TRIPOS>SUBSTRUCTURE
     1 BFQ         1

