### 
### Created by X-TOOL on Fri Sep 26 17:34:43 2014
### 

@<TRIPOS>MOLECULE
3ip8_ligand
   18    18     1     0     0
SMALL
GAST_HUCK


@<TRIPOS>ATOM
      1 C1          1.4810   15.7610   19.4690 C.ar      1 B85        -0.0590
      2 C2          2.0600   17.0600   19.4200 C.ar      1 B85        -0.0685
      3 C3          2.3970   17.6150   18.2070 C.ar      1 B85        -0.0687
      4 C4          2.1920   16.8670   16.9480 C.ar      1 B85        -0.0685
      5 C5          1.6410   15.5990   16.9900 C.ar      1 B85        -0.0590
      6 C6          1.2860   15.0370   18.2580 C.ar      1 B85        -0.0267
      7 C7          0.7670   13.6200   18.4430 C.3       1 B85         0.0529
      8 P8          0.3850   12.6180   16.9520 P.3       1 B85         0.0699
      9 O9          1.6670   12.3680   16.0440 O.co2     1 B85        -0.5607
     10 O10        -0.3050   11.2250   17.3730 O.co2     1 B85        -0.5607
     11 O11        -0.6310   13.3770   16.1710 O.co2     1 B85        -0.5607
     12 H1          1.1911   15.3266   20.4189 H         1 B85         0.0557
     13 H2          2.2352   17.6113   20.3368 H         1 B85         0.0599
     14 H3          2.8181   18.6133   18.1738 H         1 B85         0.0559
     15 H4          2.4716   17.3094   15.9987 H         1 B85         0.0599
     16 H5          1.4803   15.0388   16.0760 H         1 B85         0.0557
     17 H6         -0.1591   13.6889   19.0325 H         1 B85         0.0613
     18 H7          1.5269   13.0694   19.0169 H         1 B85         0.0613
@<TRIPOS>BOND
     1    1    2 ar 
     2    1    6 ar 
     3    2    3 ar 
     4    3    4 ar 
     5    4    5 ar 
     6    5    6 ar 
     7    6    7 1  
     8    7    8 1  
     9    8    9 ar 
    10    8   10 ar 
    11    8   11 ar 
    12    1   12 1  
    13    2   13 1  
    14    3   14 1  
    15    4   15 1  
    16    5   16 1  
    17    7   17 1  
    18    7   18 1  
@<TRIPOS>SUBSTRUCTURE
     1 B85         1

