### 
### Created by X-TOOL on Fri Sep 26 17:34:36 2014
### 

@<TRIPOS>MOLECULE
2ov4_ligand
   47    49     1     0     0
SMALL
GAST_HUCK


@<TRIPOS>ATOM
      1 N6         51.1460   29.0220   31.8380 N.pl3     1 AQP        -0.3152
      2 C6         52.2750   28.8580   32.4770 C.ar      1 AQP         0.1298
      3 N1         53.4120   29.6040   32.0730 N.ar      1 AQP        -0.2698
      4 C2         54.6810   29.5440   32.6720 C.ar      1 AQP         0.0533
      5 N3         54.8530   28.6600   33.7150 N.ar      1 AQP        -0.2714
      6 C4         53.7570   27.8670   34.1650 C.ar      1 AQP         0.1613
      7 N9         53.6730   26.9270   35.1720 N.pl3     1 AQP        -0.1919
      8 C8         52.3560   26.4780   35.2010 C.2       1 AQP         0.1123
      9 N7         51.5810   27.0780   34.2510 N.2       1 AQP        -0.2958
     10 C5         52.4660   27.9410   33.5980 C.ar      1 AQP         0.1045
     11 PA         52.1980   22.3360   37.8890 P.3       1 AQP         0.3209
     12 O1A        51.6120   21.6220   36.7860 O.co2     1 AQP        -0.5779
     13 O2A        52.9140   21.5440   38.8630 O.co2     1 AQP        -0.5779
     14 O3A        51.0690   23.1410   38.5820 O.3       1 AQP        -0.1182
     15 PB         50.0590   24.1580   37.9240 P.3       1 AQP         0.3583
     16 O2B        50.4020   25.6320   38.1860 O.co2     1 AQP        -0.5731
     17 O1B        48.6960   23.9080   38.5220 O.co2     1 AQP        -0.5731
     18 O3B        50.2170   23.5890   36.4150 O.3       1 AQP        -0.1138
     19 PG         49.3000   23.5010   35.1850 P.3       1 AQP         0.3502
     20 O2G        50.0220   23.5710   33.8870 O.co2     1 AQP        -0.5739
     21 O1G        48.2900   24.5410   35.3320 O.co2     1 AQP        -0.5739
     22 O3G        48.6350   22.2100   35.3990 O.3       1 AQP        -0.1577
     23 PD         47.2260   21.8180   36.1040 P.3       1 AQP         0.1762
     24 O2D        47.1290   20.3560   36.2910 O.co2     1 AQP        -0.6212
     25 O1D        47.0860   22.4710   37.4390 O.co2     1 AQP        -0.6212
     26 O3D        46.0990   22.2620   35.2000 O.co2     1 AQP        -0.6212
     27 C1'        54.7930   26.4770   36.0620 C.3       1 AQP         0.2010
     28 O4'        54.9120   25.1730   35.7410 O.3       1 AQP        -0.3364
     29 C4'        55.2540   24.3270   36.8730 C.3       1 AQP         0.1189
     30 C5'        54.5000   23.0840   36.8950 C.3       1 AQP         0.1130
     31 O5'        53.1670   23.3990   37.3510 O.3       1 AQP        -0.2448
     32 C3'        55.2190   25.2560   38.1090 C.3       1 AQP         0.1149
     33 O3'        56.5050   25.5860   38.6200 O.3       1 AQP        -0.3864
     34 C2'        54.3970   26.3810   37.5080 C.3       1 AQP         0.1385
     35 O2'        54.2830   27.6080   38.1140 O.3       1 AQP        -0.3836
     36 H1         50.3122   28.4872   32.1201 H         1 AQP         0.1820
     37 H2         51.0905   29.6860   31.0525 H         1 AQP         0.1820
     38 H3         55.4955   30.1703   32.3264 H         1 AQP         0.0996
     39 H4         51.9855   25.7320   35.9026 H         1 AQP         0.1349
     40 H5         55.7057   27.0731   35.9149 H         1 AQP         0.0996
     41 H6         56.3027   24.0181   36.7510 H         1 AQP         0.0651
     42 H7         54.9739   22.3683   37.5829 H         1 AQP         0.0648
     43 H8         54.4597   22.6502   35.8850 H         1 AQP         0.0648
     44 H9         54.6609   24.7844   38.9312 H         1 AQP         0.0648
     45 H10        56.4083   26.1558   39.3740 H         1 AQP         0.2100
     46 H11        53.3652   25.9998   37.5189 H         1 AQP         0.0676
     47 H12        53.7301   28.1710   37.5850 H         1 AQP         0.2101
@<TRIPOS>BOND
     1    2    1 1  
     2    2    3 ar 
     3   10    2 ar 
     4    4    3 ar 
     5    5    4 ar 
     6    6    5 ar 
     7    7    6 1  
     8    6   10 ar 
     9    7    8 1  
    10   27    7 1  
    11    8    9 2  
    12    9   10 1  
    13   11   12 ar 
    14   11   13 ar 
    15   11   14 1  
    16   31   11 1  
    17   14   15 1  
    18   15   16 ar 
    19   15   17 ar 
    20   15   18 1  
    21   18   19 1  
    22   19   20 ar 
    23   19   21 ar 
    24   19   22 1  
    25   22   23 1  
    26   23   24 ar 
    27   23   25 ar 
    28   23   26 ar 
    29   28   27 1  
    30   27   34 1  
    31   29   28 1  
    32   30   29 1  
    33   29   32 1  
    34   30   31 1  
    35   32   33 1  
    36   32   34 1  
    37   34   35 1  
    38    1   36 1  
    39    1   37 1  
    40    4   38 1  
    41    8   39 1  
    42   27   40 1  
    43   29   41 1  
    44   30   42 1  
    45   30   43 1  
    46   32   44 1  
    47   33   45 1  
    48   34   46 1  
    49   35   47 1  
@<TRIPOS>SUBSTRUCTURE
     1 AQP         1

