### 
### Created by X-TOOL on Fri Sep 26 17:34:12 2014
### 

@<TRIPOS>MOLECULE
1rnm_ligand
   33    34     1     0     0
SMALL
GAST_HUCK


@<TRIPOS>ATOM
      1 O3P        10.2400   15.6770   29.9640 O.co2     1 C5P        -0.5537
      2 P          11.5520   15.5640   30.6960 P.3       1 C5P         0.2008
      3 O1P        11.9070   16.7120   31.6240 O.co2     1 C5P        -0.5537
      4 O2P        11.9620   14.1830   31.1670 O.co2     1 C5P        -0.5537
      5 O5'        12.5920   15.7060   29.4410 O.3       1 C5P        -0.2734
      6 C5'        12.6450   14.7280   28.3950 C.3       1 C5P         0.1072
      7 C4'        13.8620   14.9610   27.6230 C.3       1 C5P         0.1183
      8 O4'        14.0130   16.3140   27.4070 O.3       1 C5P        -0.3353
      9 C3'        15.0040   14.5750   28.4140 C.3       1 C5P         0.1150
     10 O3'        15.1580   13.2500   27.9370 O.3       1 C5P        -0.3864
     11 C2'        16.1130   15.5180   28.0870 C.3       1 C5P         0.1399
     12 O2'        16.8880   15.0520   27.0150 O.3       1 C5P        -0.3835
     13 C1'        15.3650   16.6210   27.4730 C.3       1 C5P         0.2109
     14 N1         15.4640   17.8940   28.1530 N.am      1 C5P        -0.1467
     15 C2         16.4650   18.7180   27.7080 C.2       1 C5P         0.3488
     16 N3         16.4940   19.9400   28.2440 N.am      1 C5P        -0.1924
     17 C4         15.6020   20.3610   29.1860 C.2       1 C5P         0.0853
     18 C5         14.5780   19.5080   29.6630 C.2       1 C5P         0.0019
     19 C6         14.5480   18.2860   29.1140 C.2       1 C5P         0.0739
     20 O2         17.3410   18.3600   26.9170 O.2       1 C5P        -0.3777
     21 N4         15.7100   21.5830   29.6960 N.2       1 C5P        -0.4291
     22 H1         11.7644   14.8294   27.7437 H         1 C5P         0.0639
     23 H2         12.6657   13.7175   28.8290 H         1 C5P         0.0639
     24 H3         13.8276   14.4067   26.6735 H         1 C5P         0.0650
     25 H4         14.8084   14.5920   29.4963 H         1 C5P         0.0648
     26 H5         15.3144   13.2681   27.0002 H         1 C5P         0.2100
     27 H6         16.7179   15.7942   28.9633 H         1 C5P         0.0677
     28 H7         17.2663   14.2105   27.2414 H         1 C5P         0.2101
     29 H8         15.7536   16.7498   26.4520 H         1 C5P         0.1013
     30 H9         17.2029   20.5767   27.9407 H         1 C5P         0.2412
     31 H10        13.8645   19.8229   30.4230 H         1 C5P         0.0330
     32 H11        13.7813   17.5814   29.4329 H         1 C5P         0.1288
     33 H12        15.0530   21.8984   30.3924 H         1 C5P         0.0340
@<TRIPOS>BOND
     1    1    2 ar 
     2    2    3 ar 
     3    2    4 ar 
     4    2    5 1  
     5    5    6 1  
     6    6    7 1  
     7    7    8 1  
     8    7    9 1  
     9    8   13 1  
    10    9   10 1  
    11    9   11 1  
    12   11   12 1  
    13   11   13 1  
    14   13   14 1  
    15   14   15 am 
    16   14   19 1  
    17   15   16 am 
    18   15   20 2  
    19   16   17 1  
    20   17   18 1  
    21   17   21 2  
    22   18   19 2  
    23    6   22 1  
    24    6   23 1  
    25    7   24 1  
    26    9   25 1  
    27   10   26 1  
    28   11   27 1  
    29   12   28 1  
    30   13   29 1  
    31   16   30 1  
    32   18   31 1  
    33   19   32 1  
    34   21   33 1  
@<TRIPOS>SUBSTRUCTURE
     1 C5P         1

