### 
### Created by X-TOOL on Fri Sep 26 17:34:39 2014
### 

@<TRIPOS>MOLECULE
2v2h_ligand
   11    10     1     0     0
SMALL
GAST_HUCK


@<TRIPOS>ATOM
      1 P         -17.8090   -6.3090  -12.8520 P.3       1 PGA         0.2032
      2 O1P       -18.3560   -5.6970  -14.2470 O.3       1 PGA        -0.2622
      3 O2P       -17.2500   -7.6810  -13.1540 O.co2     1 PGA        -0.5536
      4 O3P       -19.0670   -6.3180  -12.0410 O.co2     1 PGA        -0.5536
      5 O4P       -16.7790   -5.3540  -12.3310 O.co2     1 PGA        -0.5536
      6 C2        -17.3650   -5.3440  -15.2630 C.3       1 PGA         0.1305
      7 C1        -18.0850   -4.6020  -16.3600 C.2       1 PGA         0.0653
      8 O1        -17.3210   -4.3400  -17.3530 O.co2     1 PGA        -0.5663
      9 O2        -19.2390   -4.2690  -16.3510 O.co2     1 PGA        -0.5663
     10 H1        -16.9012   -6.2555  -15.6680 H         1 PGA         0.0783
     11 H2        -16.5880   -4.7018  -14.8226 H         1 PGA         0.0783
@<TRIPOS>BOND
     1    1    2 1  
     2    1    3 ar 
     3    1    4 ar 
     4    1    5 ar 
     5    2    6 1  
     6    6    7 1  
     7    7    8 ar 
     8    7    9 ar 
     9    6   10 1  
    10    6   11 1  
@<TRIPOS>SUBSTRUCTURE
     1 PGA         1

