### 
### Created by X-TOOL on Fri Sep 26 17:34:22 2014
### 

@<TRIPOS>MOLECULE
1o1s_ligand
   62    63     1     0     0
SMALL
GAST_HUCK


@<TRIPOS>ATOM
      1 C4        193.6470  123.4910   29.0520 C.3       1 MOL        -0.0402
      2 C1        193.1760  122.9000   30.3810 C.2       1 MOL        -0.0804
      3 C3        191.8450  122.1070   30.3570 C.3       1 MOL        -0.0253
      4 C5        191.0540  122.1600   31.6910 C.3       1 MOL        -0.0387
      5 C7        189.7860  121.3160   31.5510 C.2       1 MOL        -0.1050
      6 C6        188.7920  121.3270   32.4690 C.2       1 MOL        -0.0584
      7 C8        188.8850  122.1830   33.7040 C.3       1 MOL        -0.0382
      8 C9        187.5480  120.4760   32.2900 C.3       1 MOL         0.0752
      9 O8        186.4070  121.1140   32.8820 O.3       1 MOL        -0.3564
     10 C11       185.1590  120.4650   32.5340 C.3       1 MOL         0.0851
     11 C17       184.4970  121.1980   31.3860 C.ar      1 MOL        -0.0117
     12 C18       183.3470  120.6930   30.7560 C.ar      1 MOL        -0.0536
     13 C12       182.7810  121.4170   29.6930 C.ar      1 MOL        -0.0627
     14 C13       183.3590  122.6390   29.2640 C.ar      1 MOL        -0.0503
     15 C14       184.5100  123.1410   29.9030 C.ar      1 MOL         0.0275
     16 C16       185.0540  122.4070   30.9590 C.ar      1 MOL        -0.0399
     17 C15       185.2070  124.4140   29.5550 C.2       1 MOL         0.1590
     18 O9        186.1140  124.8310   30.2820 O.2       1 MOL        -0.3671
     19 C19       184.8340  125.1750   28.3450 C.ar      1 MOL         0.0340
     20 C24       184.0360  124.6380   27.3230 C.ar      1 MOL        -0.0434
     21 C23       183.8300  125.3600   26.1380 C.ar      1 MOL        -0.0560
     22 C22       184.4050  126.6270   25.9730 C.ar      1 MOL        -0.0573
     23 C21       185.1500  127.1970   27.0140 C.ar      1 MOL        -0.0560
     24 C20       185.3560  126.4750   28.1970 C.ar      1 MOL        -0.0434
     25 C2        193.9180  123.0780   31.5040 C.2       1 MOL        -0.0782
     26 C10       195.2300  123.8540   31.5140 C.3       1 MOL         0.0917
     27 O3        195.1140  125.0980   32.2780 O.3       1 MOL        -0.2411
     28 P2        196.3480  125.5950   33.1190 P.3       1 MOL         0.3288
     29 O7        196.1040  127.1000   33.3530 O.co2     1 MOL        -0.5555
     30 O1        197.6720  125.3390   32.4640 O.co2     1 MOL        -0.5555
     31 O2        196.2410  124.9470   34.5310 O.3       1 MOL        -0.1547
     32 P1        197.0750  123.8600   35.2780 P.3       1 MOL         0.2070
     33 O4        196.2780  123.6140   36.5860 O.co2     1 MOL        -0.5891
     34 O5        196.9840  122.6040   34.3840 O.co2     1 MOL        -0.5891
     35 O6        198.4780  124.2910   35.5320 O.co2     1 MOL        -0.5891
     36 H1        192.9211  123.2443   28.2632 H         1 MOL         0.0375
     37 H2        194.6292  123.0700   28.7910 H         1 MOL         0.0375
     38 H3        193.7296  124.5839   29.1454 H         1 MOL         0.0375
     39 H4        192.0734  121.0548   30.1320 H         1 MOL         0.0425
     40 H5        191.2092  122.5225   29.5613 H         1 MOL         0.0425
     41 H6        190.7809  123.2013   31.9169 H         1 MOL         0.0361
     42 H7        191.6760  121.7591   32.5049 H         1 MOL         0.0361
     43 H8        189.6786  120.6787   30.6745 H         1 MOL         0.0244
     44 H9        187.9798  122.0463   34.3139 H         1 MOL         0.0376
     45 H10       188.9741  123.2397   33.4119 H         1 MOL         0.0376
     46 H11       189.7689  121.8884   34.2887 H         1 MOL         0.0376
     47 H12       187.7060  119.4998   32.7716 H         1 MOL         0.0710
     48 H13       187.3625  120.3292   31.2158 H         1 MOL         0.0710
     49 H14       184.4887  120.4728   33.4061 H         1 MOL         0.0727
     50 H15       185.3598  119.4256   32.2351 H         1 MOL         0.0727
     51 H16       182.9036  119.7600   31.0847 H         1 MOL         0.0595
     52 H17       181.8949  121.0382   29.1966 H         1 MOL         0.0612
     53 H18       182.9140  123.1883   28.4422 H         1 MOL         0.0612
     54 H19       185.9354  122.7864   31.4632 H         1 MOL         0.0608
     55 H20       183.5780  123.6637   27.4495 H         1 MOL         0.0670
     56 H21       183.2231  124.9357   25.3463 H         1 MOL         0.0630
     57 H22       184.2737  127.1655   25.0414 H         1 MOL         0.0654
     58 H23       185.5652  128.1923   26.9045 H         1 MOL         0.0630
     59 H24       185.9226  126.9212   29.0063 H         1 MOL         0.0670
     60 H25       193.5603  122.6477   32.4382 H         1 MOL         0.0268
     61 H26       195.5097  124.0960   30.4780 H         1 MOL         0.0696
     62 H27       196.0119  123.2277   31.9682 H         1 MOL         0.0696
@<TRIPOS>BOND
     1    1    2 1  
     2    2    3 1  
     3    2   25 2  
     4    3    4 1  
     5    4    5 1  
     6    5    6 2  
     7    6    7 1  
     8    6    8 1  
     9    8    9 1  
    10    9   10 1  
    11   10   11 1  
    12   11   12 ar 
    13   11   16 ar 
    14   12   13 ar 
    15   13   14 ar 
    16   14   15 ar 
    17   15   16 ar 
    18   15   17 1  
    19   17   18 2  
    20   17   19 1  
    21   19   20 ar 
    22   19   24 ar 
    23   20   21 ar 
    24   21   22 ar 
    25   22   23 ar 
    26   23   24 ar 
    27   25   26 1  
    28   26   27 1  
    29   27   28 1  
    30   28   29 ar 
    31   28   30 ar 
    32   28   31 1  
    33   31   32 1  
    34   32   33 ar 
    35   32   34 ar 
    36   32   35 ar 
    37    1   36 1  
    38    1   37 1  
    39    1   38 1  
    40    3   39 1  
    41    3   40 1  
    42    4   41 1  
    43    4   42 1  
    44    5   43 1  
    45    7   44 1  
    46    7   45 1  
    47    7   46 1  
    48    8   47 1  
    49    8   48 1  
    50   10   49 1  
    51   10   50 1  
    52   12   51 1  
    53   13   52 1  
    54   14   53 1  
    55   16   54 1  
    56   20   55 1  
    57   21   56 1  
    58   22   57 1  
    59   23   58 1  
    60   24   59 1  
    61   25   60 1  
    62   26   61 1  
    63   26   62 1  
@<TRIPOS>SUBSTRUCTURE
     1 MOL         1

