### 
### Created by X-TOOL on Fri Sep 26 17:34:26 2014
### 

@<TRIPOS>MOLECULE
1tq4_ligand
   40    42     1     0     0
SMALL
GAST_HUCK


@<TRIPOS>ATOM
      1 PB          9.6810   25.2450   36.8220 P.3       1 GDP         0.2069
      2 O1B         8.9710   26.1030   37.7580 O.co2     1 GDP        -0.5891
      3 O2B         8.9760   23.9910   36.4100 O.co2     1 GDP        -0.5891
      4 O3B        10.0170   25.8680   35.4480 O.co2     1 GDP        -0.5891
      5 O3A        11.0390   24.5870   37.5810 O.3       1 GDP        -0.1548
      6 PA         12.2030   25.5230   38.2220 P.3       1 GDP         0.3276
      7 O1A        13.2380   25.0210   37.2790 O.co2     1 GDP        -0.5556
      8 O2A        12.0560   26.9930   38.1790 O.co2     1 GDP        -0.5556
      9 O5         12.4830   24.7830   39.5990 O.3       1 GDP        -0.2436
     10 C5         11.7590   24.9460   40.8100 C.3       1 GDP         0.1132
     11 C4         12.7840   25.0580   41.9680 C.3       1 GDP         0.1189
     12 O4         13.5040   23.8180   42.3300 O.3       1 GDP        -0.3363
     13 C3         13.9910   26.0460   41.7710 C.3       1 GDP         0.1150
     14 O3         14.1880   26.6390   43.0920 O.3       1 GDP        -0.3864
     15 C2         15.1780   25.1680   41.3440 C.3       1 GDP         0.1387
     16 O2         16.4620   25.6890   41.6730 O.3       1 GDP        -0.3836
     17 C1         14.8830   23.8490   42.0020 C.3       1 GDP         0.1992
     18 N9         15.1740   22.6370   41.1520 N.pl3     1 GDP        -0.2101
     19 C8         14.8320   22.2810   39.8680 C.2       1 GDP         0.0957
     20 N7         15.2990   21.1180   39.5110 N.2       1 GDP        -0.3235
     21 C5         15.9990   20.6520   40.6100 C.2       1 GDP         0.0926
     22 C6         16.7470   19.4300   40.8590 C.2       1 GDP         0.2135
     23 O6         16.9200   18.4840   40.0750 O.2       1 GDP        -0.4091
     24 N1         17.3250   19.3710   42.1790 N.am      1 GDP        -0.1839
     25 C2         17.2010   20.3690   43.1520 C.2       1 GDP         0.2340
     26 N2         17.8050   20.1400   44.3170 N.pl3     1 GDP        -0.2807
     27 N3         16.4940   21.5320   42.9310 N.2       1 GDP        -0.2765
     28 C4         15.9410   21.5840   41.6580 C.2       1 GDP         0.1159
     29 H1         11.1042   24.0774   40.9735 H         1 GDP         0.0648
     30 H2         11.1497   25.8605   40.7608 H         1 GDP         0.0648
     31 H3         12.2026   25.3919   42.8400 H         1 GDP         0.0651
     32 H4         13.7840   26.8189   41.0162 H         1 GDP         0.0648
     33 H5         14.9095   27.2559   43.0565 H         1 GDP         0.2100
     34 H6         15.1533   25.0419   40.2515 H         1 GDP         0.0676
     35 H7         16.5273   25.7961   42.6147 H         1 GDP         0.2101
     36 H8         15.4846   23.7805   42.9204 H         1 GDP         0.0998
     37 H9         14.2298   22.9097   39.2138 H         1 GDP         0.1179
     38 H10        17.8538   18.5562   42.4166 H         1 GDP         0.2515
     39 H11        17.7491   20.8383   45.0721 H         1 GDP         0.1897
     40 H12        18.3280   19.2647   44.4627 H         1 GDP         0.1897
@<TRIPOS>BOND
     1    1    2 ar 
     2    1    3 ar 
     3    1    4 ar 
     4    1    5 1  
     5    5    6 1  
     6    6    7 ar 
     7    6    8 ar 
     8    6    9 1  
     9    9   10 1  
    10   10   11 1  
    11   11   12 1  
    12   11   13 1  
    13   12   17 1  
    14   13   14 1  
    15   13   15 1  
    16   15   16 1  
    17   15   17 1  
    18   17   18 1  
    19   18   19 1  
    20   18   28 1  
    21   19   20 2  
    22   20   21 1  
    23   21   22 1  
    24   21   28 2  
    25   22   23 2  
    26   22   24 am 
    27   24   25 1  
    28   25   26 1  
    29   25   27 2  
    30   27   28 1  
    31   10   29 1  
    32   10   30 1  
    33   11   31 1  
    34   13   32 1  
    35   14   33 1  
    36   15   34 1  
    37   16   35 1  
    38   17   36 1  
    39   19   37 1  
    40   24   38 1  
    41   26   39 1  
    42   26   40 1  
@<TRIPOS>SUBSTRUCTURE
     1 GDP         1

