### 
### Created by X-TOOL on Fri Sep 26 17:34:32 2014
### 

@<TRIPOS>MOLECULE
2h5a_ligand
   23    23     1     0     0
SMALL
GAST_HUCK


@<TRIPOS>ATOM
      1 C1        -48.2460  -14.0200   16.3590 C.3       1 X1P         0.2165
      2 O1        -46.9950  -13.3260   16.4110 O.3       1 X1P        -0.2426
      3 P         -46.3920  -12.7730   17.8010 P.3       1 X1P         0.2046
      4 O1P       -46.0910  -13.9640   18.6810 O.co2     1 X1P        -0.5536
      5 O2P       -47.3990  -11.8500   18.4640 O.co2     1 X1P        -0.5536
      6 O3P       -45.1440  -12.0070   17.4500 O.co2     1 X1P        -0.5536
      7 C2        -48.0590  -15.5440   16.2730 C.3       1 X1P         0.1384
      8 O2        -47.3920  -16.0550   17.4250 O.3       1 X1P        -0.3838
      9 C3        -47.2970  -15.9240   14.9990 C.3       1 X1P         0.1140
     10 O3        -47.0740  -17.3330   14.9660 O.3       1 X1P        -0.3864
     11 C4        -48.1030  -15.4140   13.7980 C.3       1 X1P         0.1070
     12 O4        -47.4240  -15.6170   12.5630 O.3       1 X1P        -0.3869
     13 C5        -48.3440  -13.9090   13.9610 C.3       1 X1P         0.0795
     14 O5        -48.9850  -13.5800   15.2080 O.3       1 X1P        -0.3426
     15 H1        -48.8167  -13.7847   17.2694 H         1 X1P         0.0990
     16 H2        -49.0564  -16.0055   16.2259 H         1 X1P         0.0674
     17 H3        -46.5357  -15.6504   17.4993 H         1 X1P         0.2101
     18 H4        -46.3179  -15.4227   15.0010 H         1 X1P         0.0648
     19 H5        -46.5631  -17.5895   15.7248 H         1 X1P         0.2100
     20 H6        -49.0671  -15.9427   13.7680 H         1 X1P         0.0643
     21 H7        -47.9591  -15.2870   11.8507 H         1 X1P         0.2100
     22 H8        -48.9832  -13.5636   13.1351 H         1 X1P         0.0587
     23 H9        -47.3748  -13.3906   13.9162 H         1 X1P         0.0587
@<TRIPOS>BOND
     1    1    2 1  
     2    1    7 1  
     3    1   14 1  
     4    2    3 1  
     5    3    4 ar 
     6    3    5 ar 
     7    3    6 ar 
     8    7    8 1  
     9    7    9 1  
    10    9   10 1  
    11    9   11 1  
    12   11   12 1  
    13   11   13 1  
    14   13   14 1  
    15    1   15 1  
    16    7   16 1  
    17    8   17 1  
    18    9   18 1  
    19   10   19 1  
    20   11   20 1  
    21   12   21 1  
    22   13   22 1  
    23   13   23 1  
@<TRIPOS>SUBSTRUCTURE
     1 X1P         1

