### 
### Created by X-TOOL on Fri Sep 26 17:34:12 2014
### 

@<TRIPOS>MOLECULE
1njd_ligand
   31    32     1     0     0
SMALL
GAST_HUCK


@<TRIPOS>ATOM
      1 N1         14.3370   48.9220  -53.7510 N.am      1 UMP        -0.1618
      2 C2         13.7210   47.7480  -53.2950 C.2       1 UMP         0.3327
      3 N3         13.1870   47.7900  -52.0450 N.am      1 UMP        -0.1865
      4 C4         13.1950   48.8840  -51.2070 C.2       1 UMP         0.1822
      5 C5         13.8270   50.0850  -51.7730 C.2       1 UMP         0.0062
      6 C6         14.3800   50.0490  -53.0580 C.2       1 UMP         0.0590
      7 O2         13.5560   46.7160  -53.9220 O.2       1 UMP        -0.3815
      8 O4         12.7370   48.7600  -50.0710 O.2       1 UMP        -0.4124
      9 C1         15.2860   48.8570  -54.8720 C.3       1 UMP         0.1800
     10 C2         14.9090   48.3410  -56.2530 C.3       1 UMP         0.0316
     11 C3         16.2430   48.4610  -56.9730 C.3       1 UMP         0.0890
     12 C4         16.8010   49.8430  -56.6170 C.3       1 UMP         0.1156
     13 O3         17.0720   47.4190  -56.4130 O.3       1 UMP        -0.3890
     14 O4         16.2780   49.9550  -55.1960 O.3       1 UMP        -0.3387
     15 C5         16.1420   50.9350  -57.4670 C.3       1 UMP         0.1071
     16 O5         16.5150   50.8640  -58.8880 O.3       1 UMP        -0.2734
     17 P          15.7870   51.8270  -59.9230 P.3       1 UMP         0.2008
     18 O1P        14.7100   51.0060  -60.4670 O.co2     1 UMP        -0.5537
     19 O2P        15.1840   53.0580  -59.4170 O.co2     1 UMP        -0.5537
     20 O3P        16.7390   52.1750  -60.9980 O.co2     1 UMP        -0.5537
     21 H1         12.7516   46.9564  -51.7051 H         1 UMP         0.2259
     22 H2         13.8648   51.0046  -51.1909 H         1 UMP         0.0258
     23 H3         14.8410   50.9391  -53.4835 H         1 UMP         0.1178
     24 H4         15.9366   48.0570  -54.4889 H         1 UMP         0.0970
     25 H5         14.1370   48.9679  -56.7231 H         1 UMP         0.0345
     26 H6         14.5614   47.2981  -56.2150 H         1 UMP         0.0345
     27 H7         16.1384   48.3455  -58.0619 H         1 UMP         0.0622
     28 H8         17.8976   49.8945  -56.6862 H         1 UMP         0.0649
     29 H9         17.0952   47.5081  -55.4675 H         1 UMP         0.2099
     30 H10        16.4465   51.9162  -57.0738 H         1 UMP         0.0639
     31 H11        15.0500   50.8303  -57.3861 H         1 UMP         0.0639
@<TRIPOS>BOND
     1    1    2 am 
     2    1    6 1  
     3    1    9 1  
     4    2    3 am 
     5    2    7 2  
     6    3    4 am 
     7    4    5 1  
     8    4    8 2  
     9    5    6 2  
    10    9   10 1  
    11    9   14 1  
    12   10   11 1  
    13   11   12 1  
    14   11   13 1  
    15   12   14 1  
    16   12   15 1  
    17   15   16 1  
    18   16   17 1  
    19   17   18 ar 
    20   17   19 ar 
    21   17   20 ar 
    22    3   21 1  
    23    5   22 1  
    24    6   23 1  
    25    9   24 1  
    26   10   25 1  
    27   10   26 1  
    28   11   27 1  
    29   12   28 1  
    30   13   29 1  
    31   15   30 1  
    32   15   31 1  
@<TRIPOS>SUBSTRUCTURE
     1 UMP         1

