### 
### Created by X-TOOL on Sat Nov 28 16:07:42 2015
### 

@<TRIPOS>MOLECULE
4nxu_ligand
   39    41     1     0     0
SMALL
GAST_HUCK


@<TRIPOS>ATOM
      1 PB         -5.0740  -26.8620  -11.9640 P.3       1 ADP         0.2069
      2 O1B        -5.0350  -25.5020  -11.3190 O.co2     1 ADP        -0.5891
      3 O2B        -4.3900  -26.9370  -13.3080 O.co2     1 ADP        -0.5891
      4 O3B        -6.4310  -27.5170  -11.9170 O.co2     1 ADP        -0.5891
      5 PA         -4.4580  -28.1850   -9.4990 P.3       1 ADP         0.3276
      6 O1A        -3.2680  -27.8730   -8.6250 O.co2     1 ADP        -0.5556
      7 O2A        -5.8480  -27.7220   -9.1430 O.co2     1 ADP        -0.5556
      8 O3A        -4.1390  -27.8000  -11.0370 O.3       1 ADP        -0.1548
      9 O5'        -4.5230  -29.7890   -9.6600 O.3       1 ADP        -0.2436
     10 C5'        -5.6970  -30.4320  -10.1150 C.3       1 ADP         0.1132
     11 C4'        -5.4530  -31.9160  -10.1400 C.3       1 ADP         0.1189
     12 O4'        -4.9830  -32.3400   -8.8570 O.3       1 ADP        -0.3364
     13 C3'        -6.7330  -32.6540  -10.4130 C.3       1 ADP         0.1149
     14 O3'        -6.4850  -33.6500  -11.3950 O.3       1 ADP        -0.3864
     15 C2'        -7.1620  -33.2050   -9.0660 C.3       1 ADP         0.1385
     16 O2'        -7.8500  -34.4440   -9.1270 O.3       1 ADP        -0.3836
     17 C1'        -5.8530  -33.3280   -8.2960 C.3       1 ADP         0.2010
     18 N9         -5.9880  -33.1200   -6.8180 N.pl3     1 ADP        -0.1919
     19 C8         -6.7520  -32.1980   -6.1900 C.2       1 ADP         0.1123
     20 N7         -6.6270  -32.2970   -4.8380 N.2       1 ADP        -0.2958
     21 C5         -5.7730  -33.2870   -4.5660 C.ar      1 ADP         0.1045
     22 C6         -5.2120  -33.9020   -3.3430 C.ar      1 ADP         0.1298
     23 N6         -5.5510  -33.4640   -2.1130 N.pl3     1 ADP        -0.3152
     24 N1         -4.3390  -34.9340   -3.5310 N.ar      1 ADP        -0.2698
     25 C2         -4.0040  -35.3700   -4.7720 C.ar      1 ADP         0.0533
     26 N3         -4.4830  -34.8500   -5.9130 N.ar      1 ADP        -0.2714
     27 C4         -5.3540  -33.8280   -5.8740 C.ar      1 ADP         0.1613
     28 H          -5.9435  -30.0800  -11.1276 H         1 ADP         0.0648
     29 H          -6.5311  -30.2051   -9.4347 H         1 ADP         0.0648
     30 H          -4.7094  -32.1542  -10.9148 H         1 ADP         0.0651
     31 H          -7.5039  -31.9667  -10.7917 H         1 ADP         0.0648
     32 H          -7.2891  -34.1229  -11.5749 H         1 ADP         0.2100
     33 H          -7.8222  -32.4786   -8.5695 H         1 ADP         0.0676
     34 H          -8.6383  -34.3419   -9.6473 H         1 ADP         0.2101
     35 H          -5.4334  -34.3311   -8.4623 H         1 ADP         0.0996
     36 H          -7.3842  -31.4717   -6.6988 H         1 ADP         0.1349
     37 H          -5.1457  -33.9100   -1.2777 H         1 ADP         0.1820
     38 H          -6.2152  -32.6836   -2.0091 H         1 ADP         0.1820
     39 H          -3.3027  -36.1932   -4.8466 H         1 ADP         0.0996
@<TRIPOS>BOND
     1    1    2 ar 
     2    1    3 ar 
     3    1    4 ar 
     4    8    1 1  
     5    5    6 ar 
     6    5    7 ar 
     7    5    8 1  
     8    5    9 1  
     9    9   10 1  
    10   10   11 1  
    11   11   12 1  
    12   11   13 1  
    13   12   17 1  
    14   13   14 1  
    15   13   15 1  
    16   15   16 1  
    17   15   17 1  
    18   17   18 1  
    19   18   19 1  
    20   18   27 1  
    21   19   20 2  
    22   20   21 1  
    23   21   22 ar 
    24   21   27 ar 
    25   22   23 1  
    26   22   24 ar 
    27   24   25 ar 
    28   25   26 ar 
    29   26   27 ar 
    30   10   28 1  
    31   10   29 1  
    32   11   30 1  
    33   13   31 1  
    34   14   32 1  
    35   15   33 1  
    36   16   34 1  
    37   17   35 1  
    38   19   36 1  
    39   23   37 1  
    40   23   38 1  
    41   25   39 1  
@<TRIPOS>SUBSTRUCTURE
     1 ADP         1

