### 
### Created by X-TOOL on Fri Sep 26 17:34:59 2014
### 

@<TRIPOS>MOLECULE
4ca5_ligand
   87    91     1     0     0
SMALL
GAST_HUCK


@<TRIPOS>ATOM
      1 OAB        14.5300   -5.2310  -15.6870 O.2       1 3EF        -0.3774
      2 CAH        13.9720    1.5380  -14.5730 C.ar      1 3EF        -0.0687
      3 CAK        13.9480    0.6720  -13.4800 C.ar      1 3EF        -0.0685
      4 CAL        14.2620    1.0350  -15.8350 C.ar      1 3EF        -0.0685
      5 CAQ        14.2010   -0.6940  -13.6500 C.ar      1 3EF        -0.0578
      6 CAR        14.5240   -0.3330  -16.0070 C.ar      1 3EF        -0.0578
      7 CBB        14.7660   -2.5900  -15.0900 C.3       1 3EF         0.1113
      8 OBJ        13.8740   -3.0980  -16.1180 O.3       1 3EF        -0.2506
      9 CBM        13.8750   -4.4280  -16.3710 C.2       1 3EF         0.3232
     10 CBP        14.4980   -1.2040  -14.9150 C.ar      1 3EF        -0.0130
     11 OAD        13.5850   -5.5040  -20.3280 O.co2     1 3EF        -0.6174
     12 PBY        14.0670   -6.4240  -19.2700 P.3       1 3EF         0.0154
     13 OAG        15.4610   -6.2180  -18.8090 O.co2     1 3EF        -0.6174
     14 CBX        13.0010   -6.2550  -17.7980 C.3       1 3EF         0.1176
     15 NBI        13.1400   -4.8440  -17.4080 N.am      1 3EF        -0.2418
     16 CBE        11.5020   -6.5100  -18.0560 C.3       1 3EF         0.0205
     17 CBQ        10.7540   -6.3270  -16.8560 C.ar      1 3EF        -0.0393
     18 CAS        10.5190   -7.4100  -16.0070 C.ar      1 3EF        -0.0602
     19 CAM         9.7940   -7.2590  -14.8180 C.ar      1 3EF        -0.0686
     20 CAI         9.3020   -5.9970  -14.4560 C.ar      1 3EF        -0.0687
     21 CAN         9.5480   -4.8910  -15.2840 C.ar      1 3EF        -0.0686
     22 CAT        10.2600   -5.0610  -16.4800 C.ar      1 3EF        -0.0602
     23 OAC        11.8930   -8.1260  -21.5850 O.2       1 3EF        -0.3964
     24 CAJ        16.4370  -13.2200  -28.1550 C.ar      1 3EF        -0.0626
     25 CAO        16.9230  -11.9060  -28.1550 C.ar      1 3EF        -0.0621
     26 CAP        15.7750  -13.7130  -27.0260 C.ar      1 3EF        -0.0621
     27 CAU        16.7420  -11.0910  -27.0290 C.ar      1 3EF        -0.0551
     28 CAV        15.5980  -12.8880  -25.9050 C.ar      1 3EF        -0.0551
     29 CBA        15.1610  -10.9640  -23.7260 C.2       1 3EF        -0.0269
     30 CBC        14.7180   -9.7260  -21.5100 C.3       1 3EF         0.0422
     31 CBF        13.9330   -8.1230  -19.8020 C.3       1 3EF         0.0375
     32 NBG        16.6460   -9.6630  -24.6630 N.2       1 3EF        -0.1519
     33 OBK        16.3050   -9.0770  -23.3920 O.3       1 3EF        -0.1670
     34 CBN        13.0140   -8.0250  -22.0930 C.2       1 3EF         0.1848
     35 CBS        15.3870   -9.9360  -22.8780 C.2       1 3EF         0.1411
     36 CBT        16.0630  -11.5680  -25.8990 C.ar      1 3EF        -0.0150
     37 CBU        15.9310  -10.7720  -24.8080 C.2       1 3EF         0.0430
     38 CBV        14.2850   -8.2590  -21.2810 C.3       1 3EF         0.0788
     39 N          13.2220   -7.7320  -23.3800 N.am      1 3EF        -0.2694
     40 CA         12.1020   -7.5790  -24.3000 C.3       1 3EF         0.1024
     41 C          11.5140   -8.9800  -24.6180 C.2       1 3EF         0.0619
     42 O          10.4990   -9.0120  -25.3340 O.co2     1 3EF        -0.5665
     43 CB         12.5370   -6.8530  -25.5850 C.3       1 3EF         0.0108
     44 CG         13.7990   -7.0770  -26.1400 C.ar      1 3EF        -0.0499
     45 CD1        13.9420   -7.9620  -27.2130 C.ar      1 3EF        -0.0686
     46 CD2        14.9210   -6.3740  -25.6660 C.ar      1 3EF        -0.0686
     47 CE1        15.2030   -8.1650  -27.7920 C.ar      1 3EF        -0.0398
     48 CE2        16.1770   -6.5780  -26.2470 C.ar      1 3EF        -0.0398
     49 CZ         16.3200   -7.4690  -27.3110 C.ar      1 3EF         0.0805
     50 OH         17.5490   -7.6610  -27.8880 O.3       1 3EF        -0.3376
     51 OXT        12.0670   -9.9920  -24.1000 O.co2     1 3EF        -0.5665
     52 H1         13.7663    2.5938  -14.4390 H         1 3EF         0.0559
     53 H2         13.7317    1.0599  -12.4912 H         1 3EF         0.0599
     54 H3         14.2860    1.7013  -16.6897 H         1 3EF         0.0599
     55 H4         14.1661   -1.3594  -12.7949 H         1 3EF         0.0557
     56 H5         14.7484   -0.7171  -16.9955 H         1 3EF         0.0557
     57 H6         15.8116   -2.7307  -15.4013 H         1 3EF         0.0776
     58 H7         14.5893   -3.1256  -14.1456 H         1 3EF         0.0776
     59 H8         13.3529   -6.9283  -17.0025 H         1 3EF         0.0787
     60 H9         12.6571   -4.1558  -17.9494 H         1 3EF         0.1888
     61 H10        11.3659   -7.5410  -18.4144 H         1 3EF         0.0465
     62 H11        11.1405   -5.8056  -18.8196 H         1 3EF         0.0465
     63 H12        10.9053   -8.3872  -16.2732 H         1 3EF         0.0557
     64 H13         9.6137   -8.1160  -14.1792 H         1 3EF         0.0599
     65 H14         8.7341   -5.8761  -13.5406 H         1 3EF         0.0559
     66 H15         9.1888   -3.9085  -14.9999 H         1 3EF         0.0599
     67 H16        10.4331   -4.2069  -17.1247 H         1 3EF         0.0557
     68 H17        16.5734  -13.8513  -29.0256 H         1 3EF         0.0610
     69 H18        17.4393  -11.5194  -29.0262 H         1 3EF         0.0615
     70 H19        15.3996  -14.7299  -27.0170 H         1 3EF         0.0615
     71 H20        17.1318  -10.0795  -27.0320 H         1 3EF         0.0616
     72 H21        15.0929  -13.2794  -25.0294 H         1 3EF         0.0616
     73 H22        14.4784  -11.7964  -23.5611 H         1 3EF         0.0289
     74 H23        15.4303  -10.0106  -20.7216 H         1 3EF         0.0513
     75 H24        13.8281  -10.3698  -21.4500 H         1 3EF         0.0513
     76 H25        12.9012   -8.4698  -19.6439 H         1 3EF         0.0495
     77 H26        14.6227   -8.7417  -19.2091 H         1 3EF         0.0495
     78 H27        15.0788   -7.5547  -21.5704 H         1 3EF         0.0581
     79 H28        14.1568   -7.6164  -23.7158 H         1 3EF         0.1876
     80 H29        11.3244   -6.9746  -23.8101 H         1 3EF         0.0747
     81 H30        12.4741   -5.7754  -25.3733 H         1 3EF         0.0446
     82 H31        11.8021   -7.1181  -26.3594 H         1 3EF         0.0446
     83 H32        13.0777   -8.4914  -27.5975 H         1 3EF         0.0530
     84 H33        14.8121   -5.6716  -24.8476 H         1 3EF         0.0530
     85 H34        15.3140   -8.8626  -28.6143 H         1 3EF         0.0525
     86 H35        17.0409   -6.0428  -25.8698 H         1 3EF         0.0525
     87 H36        17.4716   -8.2941  -28.5921 H         1 3EF         0.2458
@<TRIPOS>BOND
     1    9    1 2  
     2    3    2 ar 
     3    4    2 ar 
     4    5    3 ar 
     5    6    4 ar 
     6   10    5 ar 
     7   10    6 ar 
     8    8    7 1  
     9    7   10 1  
    10    9    8 1  
    11   15    9 am 
    12   12   11 ar 
    13   12   13 ar 
    14   12   14 1  
    15   31   12 1  
    16   14   15 1  
    17   14   16 1  
    18   16   17 1  
    19   17   18 ar 
    20   17   22 ar 
    21   18   19 ar 
    22   19   20 ar 
    23   21   20 ar 
    24   22   21 ar 
    25   34   23 2  
    26   25   24 ar 
    27   26   24 ar 
    28   27   25 ar 
    29   28   26 ar 
    30   36   27 ar 
    31   36   28 ar 
    32   29   35 2  
    33   37   29 1  
    34   35   30 1  
    35   30   38 1  
    36   38   31 1  
    37   32   33 1  
    38   37   32 2  
    39   33   35 1  
    40   38   34 1  
    41   34   39 am 
    42   36   37 1  
    43   39   40 1  
    44   40   41 1  
    45   40   43 1  
    46   41   42 ar 
    47   41   51 ar 
    48   43   44 1  
    49   44   45 ar 
    50   44   46 ar 
    51   45   47 ar 
    52   46   48 ar 
    53   47   49 ar 
    54   48   49 ar 
    55   49   50 1  
    56    2   52 1  
    57    3   53 1  
    58    4   54 1  
    59    5   55 1  
    60    6   56 1  
    61    7   57 1  
    62    7   58 1  
    63   14   59 1  
    64   15   60 1  
    65   16   61 1  
    66   16   62 1  
    67   18   63 1  
    68   19   64 1  
    69   20   65 1  
    70   21   66 1  
    71   22   67 1  
    72   24   68 1  
    73   25   69 1  
    74   26   70 1  
    75   27   71 1  
    76   28   72 1  
    77   29   73 1  
    78   30   74 1  
    79   30   75 1  
    80   31   76 1  
    81   31   77 1  
    82   38   78 1  
    83   39   79 1  
    84   40   80 1  
    85   43   81 1  
    86   43   82 1  
    87   45   83 1  
    88   46   84 1  
    89   47   85 1  
    90   48   86 1  
    91   50   87 1  
@<TRIPOS>SUBSTRUCTURE
     1 3EF         1

