4xe1_ligand

Created by X-TOOL on Sun Nov 13 14:29:36 2016
 22 23  0  0  0  0  0  0  0  0999 V2000
   -5.7230    3.3010   15.4070  C 0  0  0  2  0  3
   -5.0650    4.3350   14.7350  C 0  0  0  1  0  3
   -5.5830    5.9260   14.1930  S 0  0  0  1  0  4
   -5.9500    6.7130   15.3430  O 0  0  0  1  0  1
   -6.6020    5.8440   13.1770  O 0  0  0  1  0  1
   -4.1720    6.3950   13.5610  N 0  0  0  2  0  3
   -3.2230    5.4400   13.6900  C 0  0  0  1  0  3
   -2.0580    5.5710   13.2890  O 0  0  0  1  0  1
   -3.7190    4.2030   14.3770  C 0  0  0  1  0  3
   -3.0230    3.0270   14.6730  C 0  0  0  2  0  3
   -3.6730    1.9930   15.3540  C 0  0  0  2  0  3
   -5.0170    2.1360   15.7190  C 0  0  0  1  0  3
   -5.8250    0.8330   16.5750  S 0  0  0  1  0  4
   -5.3090    0.9080   17.9070  O 0  0  0  1  0  1
   -7.2320    0.9890   16.3690  O 0  0  0  1  0  1
   -5.3410   -0.5260   15.9350  N 0  0  0  3  0  3
   -6.7666    3.4014   15.6824  H 0  0  0  1  0  1
   -4.0190    7.2830   13.1274  H 0  0  0  1  0  1
   -1.9861    2.9175   14.3765  H 0  0  0  1  0  1
   -3.1375    1.0828   15.5987  H 0  0  0  1  0  1
   -5.6890   -1.3956   16.2853  H 0  0  0  1  0  1
   -4.6863   -0.5175   15.1791  H 0  0  0  1  0  1
  1  2  4  0  0  1
  1 12  4  0  0  1
  2  3  1  0  0  1
  2  9  4  0  0  1
  3  4  2  0  0  2
  3  5  2  0  0  2
  3  6  1  0  0  1
  6  7  1  0  0  1
  7  8  2  0  0  2
  7  9  1  0  0  1
  9 10  4  0  0  1
 10 11  4  0  0  1
 11 12  4  0  0  1
 12 13  1  0  0  2
 13 14  2  0  0  2
 13 15  2  0  0  2
 13 16  1  0  0  2
  1 17  1  0  0  2
  6 18  1  0  0  2
 10 19  1  0  0  2
 11 20  1  0  0  2
 16 21  1  0  0  2
 16 22  1  0  0  2
M  END
> <MOLECULAR_FORMULA>
C7H6N2O5S2

> <MOLECULAR_WEIGHT>
262.2

> <NUM_HB_ATOMS>
7  

> <NUM_ROTOR>
1  

> <XLOGP2>
-0.80

$$$$
