1gj8_ligand

Created by X-TOOL on Fri Sep 26 17:34:20 2014
 45 47  0  0  0  0  0  0  0  0999 V2000
    8.7020    1.9060   24.7210  C 0  0  0  1  0  3
    9.5020    1.7010   23.5460  C 0  0  0  1  0  3
   10.0890    2.7460   22.8090  C 0  0  0  2  0  3
    9.8940    3.9850   23.3270  C 0  0  0  1  0  3
    9.1430    4.2220   24.4360  C 0  0  0  1  0  3
    8.5610    3.2360   25.1760  C 0  0  0  2  0  3
    8.0960    0.8660   25.4440  C 0  3  0  1  0  3
    7.6220    1.1290   26.6300  N 0  0  0  3  0  3
    7.9690   -0.3410   24.9550  N 0  0  0  3  0  3
   10.2800    5.1330   22.9050  N 0  0  0  1  0  2
    9.0730    5.4870   24.7590  N 0  0  0  2  0  3
    9.7890    5.9750   23.7630  C 0  0  0  1  0  3
   10.0240    7.3300   23.6610  C 0  0  0  1  0  3
    9.6070    8.1950   24.6730  C 0  0  0  2  0  3
    9.8420    9.5420   24.5870  C 0  0  0  2  0  3
   10.4300   10.0580   23.4430  C 0  0  0  2  0  3
   10.8560    9.2200   22.4070  C 0  0  0  1  0  3
   10.6190    7.8690   22.5090  C 0  0  0  1  0  3
   11.0360    7.0530   21.4740  O 0  0  0  2  0  2
   11.4570    9.7000   21.2550  O 0  0  0  1  0  2
   12.2690   10.8580   21.4780  C 0  0  0  3  0  4
   12.8550   11.3540   20.1570  C 0  0  0  2  0  4
   14.1520   10.6070   19.8240  C 0  0  0  4  0  4
   11.8260   11.2150   19.0470  C 0  0  0  4  0  4
    9.7230    0.4740   23.0740  F 0  0  0  1  0  1
   10.6526    2.5748   21.8990  H 0  0  0  1  0  1
    8.0098    3.4643   26.0811  H 0  0  0  1  0  1
    7.1725    0.3844   27.1817  H 0  0  0  1  0  1
    7.6971    2.0814   27.0151  H 0  0  0  1  0  1
    8.3399   -0.5592   24.0192  H 0  0  0  1  0  1
    7.4981   -1.0729   25.5059  H 0  0  0  1  0  1
    8.6044    5.9572   25.5466  H 0  0  0  1  0  1
    9.0904    7.7962   25.5385  H 0  0  0  1  0  1
    9.5706   10.1981   25.4061  H 0  0  0  1  0  1
   10.5621   11.1298   23.3493  H 0  0  0  1  0  1
   10.8112    6.1516   21.6726  H 0  0  0  1  0  1
   13.0885   10.6003   22.1650  H 0  0  0  1  0  1
   11.6533   11.6532   21.9236  H 0  0  0  1  0  1
   13.0973   12.4214   20.2663  H 0  0  0  1  0  1
   14.5553   10.9796   18.8709  H 0  0  0  1  0  1
   13.9434    9.5304   19.7379  H 0  0  0  1  0  1
   14.8878   10.7751   20.6242  H 0  0  0  1  0  1
   10.9129   11.7629   19.3228  H 0  0  0  1  0  1
   11.5855   10.1516   18.9010  H 0  0  0  1  0  1
   12.2348   11.6299   18.1139  H 0  0  0  1  0  1
  2 25  1  0  0  2
  1  7  1  0  0  2
  1  6  4  0  0  1
  1  2  4  0  0  1
  2  3  4  0  0  1
  3  4  4  0  0  1
  4 10  1  0  0  1
  4  5  4  0  0  1
  5 11  1  0  0  1
  6  5  4  0  0  1
 11 12  1  0  0  1
 12 13  1  0  0  2
 10 12  2  0  0  1
 13 18  4  0  0  1
 13 14  4  0  0  1
 14 15  4  0  0  1
 15 16  4  0  0  1
 16 17  4  0  0  1
 17 20  1  0  0  2
 18 17  4  0  0  1
 18 19  1  0  0  2
 20 21  1  0  0  2
 21 22  1  0  0  2
 22 24  1  0  0  2
 22 23  1  0  0  2
  7  9  2  0  0  2
  7  8  2  0  0  2
  3 26  1  0  0  2
  6 27  1  0  0  2
  8 28  1  0  0  2
  8 29  1  0  0  2
  9 30  1  0  0  2
  9 31  1  0  0  2
 11 32  1  0  0  2
 14 33  1  0  0  2
 15 34  1  0  0  2
 16 35  1  0  0  2
 19 36  1  0  0  2
 21 37  1  0  0  2
 21 38  1  0  0  2
 22 39  1  0  0  2
 23 40  1  0  0  2
 23 41  1  0  0  2
 23 42  1  0  0  2
 24 43  1  0  0  2
 24 44  1  0  0  2
 24 45  1  0  0  2
M  END
> <MOLECULAR_FORMULA>
C18H20N4O2F

> <MOLECULAR_WEIGHT>
343.2

> <NUM_HB_ATOMS>
6  

> <NUM_ROTOR>
3  

> <XLOGP2>
2.95 

$$$$
