REMARK  5 active torsions:
REMARK  status: ('A' for Active; 'I' for Inactive)
REMARK    1  A    between atoms: N_1  and  CA_2 
REMARK    2  A    between atoms: CA_2  and  C_3 
REMARK    3  A    between atoms: CA_2  and  CB_5 
REMARK    4  A    between atoms: CB_5  and  CG_6 
REMARK    5  A    between atoms: CG_6  and  CD_7 
ROOT
ATOM      1  CA  GLU d           5.612 -15.247  18.912  0.00  0.00     0.283 C 
ENDROOT
BRANCH   1   2
ATOM      2  N   GLU d           5.951 -13.891  18.386  0.00  0.00    -0.065 N 
ATOM      3  H1  GLU d           6.938 -13.723  18.502  0.00  0.00     0.275 HD
ATOM      4  H2  GLU d           5.430 -13.194  18.894  0.00  0.00     0.275 HD
ATOM      5  H3  GLU d           5.714 -13.841  17.407  0.00  0.00     0.275 HD
ENDBRANCH   1   2
BRANCH   1   6
ATOM      6  C   GLU d           4.122 -15.516  18.744  0.00  0.00     0.204 C 
ATOM      7  O   GLU d           3.565 -16.521  19.202  0.00  0.00    -0.646 OA
ATOM      8  OXT GLU d           3.458 -14.701  18.139  0.00  0.00    -0.646 OA
ENDBRANCH   1   6
BRANCH   1   9
ATOM      9  CB  GLU d           5.999 -15.360  20.378  0.00  0.00     0.054 C 
BRANCH   9  10
ATOM     10  CG  GLU d           7.487 -15.583  20.603  0.00  0.00     0.116 C 
BRANCH  10  11
ATOM     11  CD  GLU d           7.983 -16.974  20.148  0.00  0.00     0.172 C 
ATOM     12  OE1 GLU d           9.211 -17.160  19.968  0.00  0.00    -0.648 OA
ATOM     13  OE2 GLU d           7.155 -17.891  19.964  0.00  0.00    -0.648 OA
ENDBRANCH  10  11
ENDBRANCH   9  10
ENDBRANCH   1   9
TORSDOF 5
