### 
### Created by X-TOOL on Fri Sep 26 17:34:46 2014
### 

@<TRIPOS>MOLECULE
3iog_ligand
   19    19     1     0     0
SMALL
GAST_HUCK


@<TRIPOS>ATOM
      1 C1          3.5350    2.5540   68.5830 C.ar      1 SDF         0.0003
      2 P1          2.6000    4.5680   70.3450 P.3       1 SDF         0.0834
      3 S1          0.9150    2.9580   68.4820 S.3       1 SDF        -0.1431
      4 CL1         4.9390    4.2650   66.8790 Cl        1 SDF        -0.0771
      5 C2          4.5970    2.7150   67.6810 C.ar      1 SDF         0.0442
      6 CL2         6.5680   -0.8290   67.5930 Cl        1 SDF        -0.0770
      7 C3          5.5060    1.6960   67.4000 C.ar      1 SDF        -0.0405
      8 C4          5.3600    0.4530   67.9860 C.ar      1 SDF         0.0335
      9 C5          4.2770    0.2490   68.8470 C.ar      1 SDF        -0.0543
     10 C6          3.3620    1.2810   69.1210 C.ar      1 SDF        -0.0567
     11 C7          2.5570    3.6650   68.7730 C.3       1 SDF         0.1075
     12 O11         3.9810    5.1630   70.5320 O.co2     1 SDF        -0.5600
     13 O12         1.5550    5.6410   70.1640 O.co2     1 SDF        -0.5600
     14 O13         2.3110    3.5760   71.4580 O.co2     1 SDF        -0.5600
     15 H1          0.9148    2.4618   67.6045 H         1 SDF         0.1058
     16 H2          6.3299    1.8793   66.7197 H         1 SDF         0.0612
     17 H3          4.1406   -0.7211   69.3110 H         1 SDF         0.0607
     18 H4          2.5094    1.0829   69.7604 H         1 SDF         0.0558
     19 H5          2.7588    4.4083   67.9876 H         1 SDF         0.0765
@<TRIPOS>BOND
     1    5    1 ar 
     2    1   10 ar 
     3    1   11 1  
     4   11    2 1  
     5    2   12 ar 
     6    2   13 ar 
     7    2   14 ar 
     8   11    3 1  
     9    5    4 1  
    10    7    5 ar 
    11    8    6 1  
    12    7    8 ar 
    13    8    9 ar 
    14    9   10 ar 
    15    3   15 1  
    16    7   16 1  
    17    9   17 1  
    18   10   18 1  
    19   11   19 1  
@<TRIPOS>SUBSTRUCTURE
     1 SDF         1

