### 
### Created by X-TOOL on Fri Sep 26 17:34:22 2014
### 

@<TRIPOS>MOLECULE
1n3z_ligand
   32    33     1     0     0
SMALL
GAST_HUCK


@<TRIPOS>ATOM
      1 N1         23.4930    4.3230   11.3480 N.am      1 U3P        -0.1592
      2 C2         24.3360    3.2660   11.0820 C.2       1 U3P         0.3328
      3 N3         25.4780    3.6130   10.4060 N.am      1 U3P        -0.1865
      4 C4         25.8460    4.8790   10.0000 C.2       1 U3P         0.1822
      5 C5         24.9270    5.9080   10.3500 C.2       1 U3P         0.0062
      6 C6         23.8050    5.6020   10.9900 C.2       1 U3P         0.0591
      7 O2         24.1120    2.1140   11.4260 O.2       1 U3P        -0.3815
      8 O4         26.8660    5.0230    9.3400 O.2       1 U3P        -0.4124
      9 P          18.7860    3.5040   15.1950 P.3       1 U3P         0.2013
     10 O1P        18.9850    2.3130   16.0760 O.co2     1 U3P        -0.5537
     11 O2P        17.5210    3.6400   14.4190 O.co2     1 U3P        -0.5537
     12 O3P        19.0180    4.8100   16.0720 O.co2     1 U3P        -0.5537
     13 O5'        20.3970    7.1690   12.1770 O.3       1 U3P        -0.3924
     14 C5'        19.4330    6.1260   11.9040 C.3       1 U3P         0.0734
     15 C4'        20.0600    4.7800   12.1770 C.3       1 U3P         0.1182
     16 O4'        21.1760    4.5930   11.2870 O.3       1 U3P        -0.3363
     17 C3'        20.5700    4.6610   13.6060 C.3       1 U3P         0.1483
     18 O3'        20.0290    3.4620   14.1790 O.3       1 U3P        -0.2675
     19 C2'        22.0740    4.4180   13.4780 C.3       1 U3P         0.1433
     20 O2'        22.6270    3.4570   14.3290 O.3       1 U3P        -0.3833
     21 C1'        22.2180    4.0130   12.0130 C.3       1 U3P         0.2062
     22 H1         26.1100    2.8704   10.1843 H         1 U3P         0.2259
     23 H2         25.1438    6.9439   10.0934 H         1 U3P         0.0258
     24 H3         23.1081    6.4011   11.2384 H         1 U3P         0.1178
     25 H4         21.1554    7.0522   11.6170 H         1 U3P         0.2095
     26 H5         19.1230    6.1794   10.8500 H         1 U3P         0.0584
     27 H6         18.5542    6.2597   12.5519 H         1 U3P         0.0584
     28 H7         19.3092    3.9962   11.9985 H         1 U3P         0.0650
     29 H8         20.3329    5.5509   14.2075 H         1 U3P         0.0704
     30 H9         22.6061    5.3629   13.6625 H         1 U3P         0.0680
     31 H10        22.2138    2.6170   14.1672 H         1 U3P         0.2101
     32 H11        22.1009    2.9199   11.9747 H         1 U3P         0.0997
@<TRIPOS>BOND
     1    1    2 am 
     2    1    6 1  
     3   21    1 1  
     4    2    3 am 
     5    2    7 2  
     6    3    4 am 
     7    5    4 1  
     8    4    8 2  
     9    6    5 2  
    10    9   10 ar 
    11    9   11 ar 
    12    9   12 ar 
    13   18    9 1  
    14   14   13 1  
    15   15   14 1  
    16   15   16 1  
    17   17   15 1  
    18   16   21 1  
    19   17   18 1  
    20   17   19 1  
    21   19   20 1  
    22   19   21 1  
    23    3   22 1  
    24    5   23 1  
    25    6   24 1  
    26   13   25 1  
    27   14   26 1  
    28   14   27 1  
    29   15   28 1  
    30   17   29 1  
    31   19   30 1  
    32   20   31 1  
    33   21   32 1  
@<TRIPOS>SUBSTRUCTURE
     1 U3P         1

