### 
### Created by X-TOOL on Fri Sep 26 17:34:16 2014
### 

@<TRIPOS>MOLECULE
1qb9_ligand
   69    74     1     0     0
SMALL
GAST_HUCK


@<TRIPOS>ATOM
      1 N1         19.6800    2.1500   53.8100 N.pl3     1 MOL        -0.2722
      2 C1         19.9090    1.5210   54.9540 C.cat     1 MOL         0.2351
      3 N2         18.8690    0.7860   55.3640 N.pl3     1 MOL        -0.2722
      4 C2         21.0750    1.6030   55.7630 C.ar      1 MOL         0.0240
      5 C3         22.2160    2.3270   55.3700 C.ar      1 MOL        -0.0525
      6 C4         23.3650    2.3730   56.2070 C.ar      1 MOL        -0.0258
      7 C5         24.5020    3.1220   55.8000 C.ar      1 MOL        -0.0526
      8 C6         25.6700    3.1410   56.6190 C.ar      1 MOL        -0.0153
      9 C7         25.6610    2.4280   57.8380 C.ar      1 MOL        -0.0543
     10 C8         24.5350    1.7160   58.2620 C.ar      1 MOL        -0.0566
     11 C9         23.3760    1.6660   57.4410 C.ar      1 MOL        -0.0222
     12 C10        22.2570    0.9260   57.8630 C.ar      1 MOL        -0.0568
     13 C11        21.1210    0.9080   57.0200 C.ar      1 MOL        -0.0582
     14 C12        26.9010    3.9020   56.1750 C.3       1 MOL         0.0810
     15 N21        28.1230    3.1900   56.5870 N.pl3     1 MOL        -0.2512
     16 C21        28.8770    3.5270   57.6880 C.ar      1 MOL         0.0680
     17 C22        29.9340    2.6340   57.8400 C.ar      1 MOL        -0.0084
     18 C23        29.8170    1.7300   56.8040 C.ar      1 MOL        -0.0118
     19 C24        28.6860    2.0890   56.0410 C.ar      1 MOL         0.0620
     20 C25        30.6510    0.6320   56.5360 C.ar      1 MOL        -0.0735
     21 C26        30.3180   -0.1420   55.4170 C.ar      1 MOL        -0.0437
     22 C27        29.1710    0.1870   54.6210 C.ar      1 MOL         0.0816
     23 C28        28.3620    1.2810   54.9170 C.ar      1 MOL        -0.0120
     24 C29        30.8970    2.6960   58.8640 C.ar      1 MOL        -0.0698
     25 C30        30.7770    3.7480   59.7920 C.ar      1 MOL        -0.0761
     26 C31        29.7080    4.6710   59.6700 C.ar      1 MOL        -0.0741
     27 C32        28.7530    4.5750   58.6320 C.ar      1 MOL        -0.0411
     28 O          28.9380   -0.6660   53.5510 O.3       1 MOL        -0.3181
     29 C41        29.8570   -1.8200   53.3930 C.3       1 MOL         0.0847
     30 C42        31.3180   -1.3350   53.1880 C.3       1 MOL        -0.0006
     31 C43        31.6910   -1.3610   51.6590 C.3       1 MOL         0.0406
     32 N41        31.7100   -2.7510   51.2380 N.pl3     1 MOL        -0.2757
     33 C44        30.4790   -3.4770   51.5120 C.3       1 MOL         0.0406
     34 C45        29.3770   -2.6870   52.2250 C.3       1 MOL        -0.0006
     35 C46        32.7940   -3.3460   50.6280 C.2       1 MOL         0.0876
     36 N42        32.7680   -4.6500   50.2360 N.2       1 MOL        -0.3924
     37 C47        34.0800   -2.6720   50.3310 C.3       1 MOL         0.0185
     38 H1         18.7889    2.0076   53.3134 H         1 MOL         0.3181
     39 H2         20.3931    2.7811   53.4176 H         1 MOL         0.3181
     40 H3         18.9306    0.2513   56.2422 H         1 MOL         0.3181
     41 H4         18.0067    0.7548   54.8015 H         1 MOL         0.3181
     42 H5         22.2192    2.8535   54.4224 H         1 MOL         0.0603
     43 H6         24.4819    3.6776   54.8694 H         1 MOL         0.0532
     44 H7         26.5487    2.4329   58.4601 H         1 MOL         0.0587
     45 H8         24.5460    1.2023   59.2165 H         1 MOL         0.0620
     46 H9         22.2647    0.3870   58.8035 H         1 MOL         0.0619
     47 H10        20.2490    0.3466   57.3354 H         1 MOL         0.0598
     48 H11        26.8930    4.9023   56.6325 H         1 MOL         0.0745
     49 H12        26.8908    3.9998   55.0794 H         1 MOL         0.0745
     50 H13        31.5051    0.3966   57.1606 H         1 MOL         0.0561
     51 H14        30.9312   -0.9953   55.1508 H         1 MOL         0.0463
     52 H15        27.5004    1.5125   54.3013 H         1 MOL         0.0451
     53 H16        31.6956    1.9664   58.9352 H         1 MOL         0.0565
     54 H17        31.4978    3.8515   60.5950 H         1 MOL         0.0514
     55 H18        29.6203    5.4735   60.3934 H         1 MOL         0.0560
     56 H19        27.9414    5.2900   58.5602 H         1 MOL         0.0536
     57 H20        29.8233   -2.4245   54.3114 H         1 MOL         0.0651
     58 H21        32.0013   -1.9973   53.7398 H         1 MOL         0.0315
     59 H22        31.4163   -0.3076   53.5683 H         1 MOL         0.0315
     60 H23        32.6821   -0.9088   51.5064 H         1 MOL         0.0536
     61 H24        30.9404   -0.8034   51.0797 H         1 MOL         0.0536
     62 H25        30.7322   -4.3434   52.1407 H         1 MOL         0.0536
     63 H26        30.0739   -3.8271   50.5511 H         1 MOL         0.0536
     64 H27        28.8959   -2.0291   51.4863 H         1 MOL         0.0315
     65 H28        28.6388   -3.4044   52.6129 H         1 MOL         0.0315
     66 H29        33.5753   -5.0591   49.7922 H         1 MOL         0.0591
     67 H30        34.7625   -3.3832   49.8428 H         1 MOL         0.0525
     68 H31        34.5317   -2.3147   51.2681 H         1 MOL         0.0525
     69 H32        33.9003   -1.8179   49.6615 H         1 MOL         0.0525
@<TRIPOS>BOND
     1    1    2 ar 
     2    2    4 1  
     3    2    3 ar 
     4    4   13 ar 
     5    4    5 ar 
     6    5    6 ar 
     7    6   11 ar 
     8    6    7 ar 
     9    7    8 ar 
    10    8   14 1  
    11    8    9 ar 
    12    9   10 ar 
    13   10   11 ar 
    14   11   12 ar 
    15   12   13 ar 
    16   14   15 1  
    17   15   19 1  
    18   15   16 1  
    19   16   27 ar 
    20   16   17 ar 
    21   17   24 ar 
    22   17   18 1  
    23   18   20 ar 
    24   18   19 ar 
    25   19   23 ar 
    26   23   22 ar 
    27   22   28 1  
    28   22   21 ar 
    29   21   20 ar 
    30   28   29 1  
    31   29   34 1  
    32   29   30 1  
    33   30   31 1  
    34   31   32 1  
    35   32   35 1  
    36   32   33 1  
    37   33   34 1  
    38   35   37 1  
    39   35   36 2  
    40   24   25 ar 
    41   25   26 ar 
    42   26   27 ar 
    43    1   38 1  
    44    1   39 1  
    45    3   40 1  
    46    3   41 1  
    47    5   42 1  
    48    7   43 1  
    49    9   44 1  
    50   10   45 1  
    51   12   46 1  
    52   13   47 1  
    53   14   48 1  
    54   14   49 1  
    55   20   50 1  
    56   21   51 1  
    57   23   52 1  
    58   24   53 1  
    59   25   54 1  
    60   26   55 1  
    61   27   56 1  
    62   29   57 1  
    63   30   58 1  
    64   30   59 1  
    65   31   60 1  
    66   31   61 1  
    67   33   62 1  
    68   33   63 1  
    69   34   64 1  
    70   34   65 1  
    71   36   66 1  
    72   37   67 1  
    73   37   68 1  
    74   37   69 1  
@<TRIPOS>SUBSTRUCTURE
     1 MOL         1

