### 
### Created by X-TOOL on Fri Sep 26 17:34:44 2014
### 

@<TRIPOS>MOLECULE
3fvh_ligand
   83    83     1     0     0
SMALL
GAST_HUCK


@<TRIPOS>ATOM
      1 C          -5.5750   14.4380   10.8990 C.2       1 ACE         0.1751
      2 O          -5.3900   13.0750   11.1170 O.2       1 ACE        -0.3972
      3 CH3        -5.2750   15.1520   12.2240 C.3       1 ACE         0.0258
      4 N          -5.9020   14.8930    9.7050 N.am      1 ACE        -0.2658
      5 CA         -6.3480   13.9380    8.6970 C.3       1 ACE         0.1311
      6 C          -5.2140   13.5250    7.7910 C.2       1 ACE         0.2040
      7 O          -5.4430   12.9770    6.7060 O.2       1 ACE        -0.3944
      8 CB         -7.4700   14.5390    7.8420 C.3       1 ACE        -0.0101
      9 CG         -8.7350   14.7500    8.6800 C.3       1 ACE        -0.0425
     10 CD1        -9.7850   15.4770    7.8450 C.3       1 ACE        -0.0625
     11 CD2        -9.2880   13.4250    9.2450 C.3       1 ACE        -0.0625
     12 N          -3.9920   13.7960    8.2060 N.am      1 ACE        -0.2625
     13 CA         -2.8480   13.4130    7.4070 C.3       1 ACE         0.1369
     14 C          -1.6010   13.2660    8.2920 C.2       1 ACE         0.2054
     15 O          -1.5140   13.7880    9.4100 O.2       1 ACE        -0.3942
     16 CB         -2.5710   14.4430    6.2990 C.3       1 ACE         0.0145
     17 CG         -2.3610   15.8400    6.8040 C.2       1 ACE        -0.0027
     18 ND1        -1.2280   16.2400    7.4790 N.2       1 ACE        -0.3252
     19 CD2        -3.1520   16.9360    6.7300 C.2       1 ACE         0.0291
     20 CE1        -1.3390   17.5080    7.8250 C.2       1 ACE         0.0907
     21 NE2        -2.4940   17.9580    7.3700 N.pl3     1 ACE        -0.2752
     22 N          -0.6370   12.5460    7.7450 N.am      1 ACE        -0.2615
     23 CA          0.6550   12.3620    8.3760 C.3       1 ACE         0.1539
     24 C           1.4870   13.6860    8.4100 C.2       1 ACE         0.2063
     25 O           1.0400   14.7050    7.9080 O.2       1 ACE        -0.3943
     26 CB          1.3980   11.2050    7.7080 C.3       1 ACE         0.0843
     27 OG          1.7050   11.5280    6.3690 O.3       1 ACE        -0.3903
     28 N           2.6500   13.7080    9.0630 N.am      1 ACE        -0.2610
     29 CA          3.3300   14.8430    9.2380 C.3       1 ACE         0.1612
     30 CB          4.5200   14.4920   10.1550 C.3       1 ACE         0.1262
     31 CG2         5.3650   15.7190   10.5190 C.3       1 ACE        -0.0298
     32 OG1         4.0930   13.9200   11.3700 O.3       1 ACE        -0.2685
     33 P           4.4200   12.3360   11.6410 P.3       1 ACE         0.2014
     34 O1P         3.8260   12.1080   12.9620 O.co2     1 ACE        -0.5537
     35 O2P         5.8800   12.1660   11.5830 O.co2     1 ACE        -0.5537
     36 O3P         3.7090   11.5270   10.6190 O.co2     1 ACE        -0.5537
     37 C           3.6740   15.5790    8.1350 C.2       1 ACE         0.2068
     38 O           4.2360   15.0440    7.2090 O.2       1 ACE        -0.3943
     39 N           3.3900   16.8880    8.1560 N.am      1 ACE        -0.2639
     40 CA          3.6620   17.7350    6.9790 C.3       1 ACE         0.1279
     41 C           4.9920   18.4780    6.9780 C.2       1 ACE         0.1989
     42 O           5.5560   18.7270    8.0050 O.2       1 ACE        -0.3947
     43 CB          2.4590   18.6710    6.7870 C.3       1 ACE        -0.0244
     44 N           5.5220   18.8460    5.6850 N.am      1 ACE        -0.2990
     45 H1         -5.4099   16.2361   12.0950 H         1 ACE         0.0467
     46 H2         -4.2376   14.9449   12.5254 H         1 ACE         0.0467
     47 H3         -5.9625   14.7869   13.0012 H         1 ACE         0.0467
     48 H4         -5.8455   15.8693    9.4959 H         1 ACE         0.1882
     49 H5         -6.7322   13.0449    9.2116 H         1 ACE         0.0800
     50 H6         -7.6971   13.8547    7.0113 H         1 ACE         0.0315
     51 H7         -7.1380   15.5072    7.4392 H         1 ACE         0.0315
     52 H8         -8.4725   15.3918    9.5340 H         1 ACE         0.0298
     53 H9        -10.6927   15.6279    8.4478 H         1 ACE         0.0232
     54 H10       -10.0299   14.8742    6.9581 H         1 ACE         0.0232
     55 H11        -9.3895   16.4530    7.5273 H         1 ACE         0.0232
     56 H12        -8.5088   12.9267    9.8404 H         1 ACE         0.0232
     57 H13        -9.5899   12.7699    8.4146 H         1 ACE         0.0232
     58 H14       -10.1595   13.6337    9.8829 H         1 ACE         0.0232
     59 H15        -3.8553   14.2683    9.0768 H         1 ACE         0.1885
     60 H16        -3.0634   12.4423    6.9365 H         1 ACE         0.0817
     61 H17        -3.4286   14.4494    5.6102 H         1 ACE         0.0420
     62 H18        -1.6666   14.1319    5.7556 H         1 ACE         0.0420
     63 H19        -4.1286   16.9963    6.2519 H         1 ACE         0.0729
     64 H20        -0.6057   18.0836    8.3879 H         1 ACE         0.1199
     65 H21        -2.8450   18.9203    7.4776 H         1 ACE         0.2361
     66 H22        -0.8057   12.1108    6.8606 H         1 ACE         0.1884
     67 H23         0.4735   12.0731    9.4217 H         1 ACE         0.0823
     68 H24         0.7637   10.3065    7.7282 H         1 ACE         0.0606
     69 H25         2.3308   11.0078    8.2567 H         1 ACE         0.0606
     70 H26         2.1659   10.8012    5.9668 H         1 ACE         0.2097
     71 H27         3.0207   12.8547    9.4297 H         1 ACE         0.1884
     72 H28         2.6677   15.5058    9.8142 H         1 ACE         0.0830
     73 H29         5.1547   13.7688    9.6220 H         1 ACE         0.0695
     74 H30         6.1957   15.4117   11.1713 H         1 ACE         0.0260
     75 H31         4.7376   16.4532   11.0457 H         1 ACE         0.0260
     76 H32         5.7678   16.1722    9.6012 H         1 ACE         0.0260
     77 H33         2.9899   17.2949    8.9772 H         1 ACE         0.1883
     78 H34         3.6963   17.0630    6.1088 H         1 ACE         0.0797
     79 H35         2.6329   19.3171    5.9139 H         1 ACE         0.0277
     80 H36         2.3321   19.2940    7.6847 H         1 ACE         0.0277
     81 H37         1.5507   18.0722    6.6248 H         1 ACE         0.0277
     82 H38         6.3918   19.3354    5.6220 H         1 ACE         0.1815
     83 H39         5.0190   18.6113    4.8532 H         1 ACE         0.1815
@<TRIPOS>BOND
     1    1    2 2  
     2    1    3 1  
     3    1    4 am 
     4    4    5 1  
     5    5    6 1  
     6    5    8 1  
     7    6    7 2  
     8    6   12 am 
     9    8    9 1  
    10    9   10 1  
    11    9   11 1  
    12   12   13 1  
    13   13   14 1  
    14   13   16 1  
    15   14   15 2  
    16   14   22 am 
    17   16   17 1  
    18   17   18 1  
    19   17   19 2  
    20   18   20 2  
    21   19   21 1  
    22   20   21 1  
    23   22   23 1  
    24   23   24 1  
    25   23   26 1  
    26   24   25 2  
    27   24   28 am 
    28   26   27 1  
    29   28   29 1  
    30   29   30 1  
    31   29   37 1  
    32   30   31 1  
    33   30   32 1  
    34   32   33 1  
    35   33   34 ar 
    36   33   35 ar 
    37   33   36 ar 
    38   37   38 2  
    39   37   39 am 
    40   39   40 1  
    41   40   41 1  
    42   40   43 1  
    43   41   42 2  
    44   41   44 am 
    45    3   45 1  
    46    3   46 1  
    47    3   47 1  
    48    4   48 1  
    49    5   49 1  
    50    8   50 1  
    51    8   51 1  
    52    9   52 1  
    53   10   53 1  
    54   10   54 1  
    55   10   55 1  
    56   11   56 1  
    57   11   57 1  
    58   11   58 1  
    59   12   59 1  
    60   13   60 1  
    61   16   61 1  
    62   16   62 1  
    63   19   63 1  
    64   20   64 1  
    65   21   65 1  
    66   22   66 1  
    67   23   67 1  
    68   26   68 1  
    69   26   69 1  
    70   27   70 1  
    71   28   71 1  
    72   29   72 1  
    73   30   73 1  
    74   31   74 1  
    75   31   75 1  
    76   31   76 1  
    77   39   77 1  
    78   40   78 1  
    79   43   79 1  
    80   43   80 1  
    81   43   81 1  
    82   44   82 1  
    83   44   83 1  
@<TRIPOS>SUBSTRUCTURE
     1 ACE         1

