### 
### Created by X-TOOL on Fri Sep 26 17:34:25 2014
### 

@<TRIPOS>MOLECULE
1v16_ligand
   42    43     1     0     0
SMALL
GAST_HUCK


@<TRIPOS>ATOM
      1 N1         77.0480    0.6410   11.1880 N.ar      1 TDP        -0.2938
      2 C2         77.2970    1.8180   11.7370 C.ar      1 TDP         0.0758
      3 C2A        77.4390    1.9950   13.2770 C.3       1 TDP        -0.0029
      4 N3         77.3660    2.9110   10.9250 N.ar      1 TDP        -0.2610
      5 C4         77.2880    2.8510    9.5620 C.ar      1 TDP         0.1223
      6 N4         77.4280    4.0190    8.8930 N.pl3     1 TDP        -0.3187
      7 C5         77.0280    1.5860    8.9620 C.ar      1 TDP         0.0328
      8 C6         76.8830    0.5040    9.8490 C.ar      1 TDP         0.0074
      9 C35        76.8820    1.3990    7.4130 C.3       1 TDP         0.0562
     10 N3         75.6030    2.0070    6.9640 N.2       1 TDP        -0.2745
     11 C2         75.7460    3.2910    6.3050 C.2       1 TDP         0.1352
     12 S1         74.0010    3.6320    5.8920 S.3       1 TDP         0.1156
     13 C5         73.3200    2.1500    6.5060 C.2       1 TDP         0.1730
     14 C4         74.3850    1.4030    7.0040 C.2       1 TDP         0.1309
     15 C4A        74.2570   -0.0260    7.6160 C.3       1 TDP         0.0228
     16 C5A        71.8230    1.9030    6.4000 C.3       1 TDP         0.0829
     17 C5B        71.0440    2.9360    7.2280 C.3       1 TDP         0.1135
     18 O5G        69.6330    2.7480    7.1180 O.3       1 TDP        -0.2401
     19 P1         68.6320    3.7430    7.6910 P.3       1 TDP         0.3279
     20 O11        68.7560    5.0370    6.7470 O.3       1 TDP        -0.1548
     21 O12        69.0550    4.1690    9.0430 O.co2     1 TDP        -0.5556
     22 O13        67.2850    3.1100    7.5310 O.co2     1 TDP        -0.5556
     23 P2         68.4960    5.1530    5.1220 P.3       1 TDP         0.2069
     24 O21        69.8340    4.8260    4.4440 O.co2     1 TDP        -0.5891
     25 O22        67.4040    4.1630    4.7500 O.co2     1 TDP        -0.5891
     26 O23        68.0850    6.5580    4.8500 O.co2     1 TDP        -0.5891
     27 H1         77.3584    1.0139   13.7678 H         1 TDP         0.0449
     28 H2         76.6405    2.6559   13.6453 H         1 TDP         0.0449
     29 H3         78.4184    2.4402   13.5062 H         1 TDP         0.0449
     30 H4         77.3779    4.0325    7.8643 H         1 TDP         0.1789
     31 H5         77.5847    4.8945    9.4125 H         1 TDP         0.1789
     32 H6         76.6311   -0.4715    9.4490 H         1 TDP         0.0791
     33 H7         76.8840    0.3261    7.1705 H         1 TDP         0.0563
     34 H8         77.7224    1.8919    6.9024 H         1 TDP         0.0563
     35 H9         76.6395    3.8828    6.1117 H         1 TDP         0.1655
     36 H10        73.2083   -0.3541    7.5650 H         1 TDP         0.0599
     37 H11        74.5842   -0.0059    8.6660 H         1 TDP         0.0599
     38 H12        74.8881   -0.7258    7.0486 H         1 TDP         0.0599
     39 H13        71.5958    0.8940    6.7746 H         1 TDP         0.0773
     40 H14        71.5177    1.9802    5.3461 H         1 TDP         0.0773
     41 H15        71.2979    3.9444    6.8694 H         1 TDP         0.0687
     42 H16        71.3350    2.8383    8.2843 H         1 TDP         0.0687
@<TRIPOS>BOND
     1    1    2 ar 
     2    1    8 ar 
     3    2    3 1  
     4    2    4 ar 
     5    4    5 ar 
     6    5    6 1  
     7    5    7 ar 
     8    7    8 ar 
     9    7    9 1  
    10    9   10 1  
    11   10   11 2  
    12   10   14 1  
    13   11   12 1  
    14   12   13 1  
    15   13   14 2  
    16   13   16 1  
    17   14   15 1  
    18   16   17 1  
    19   17   18 1  
    20   18   19 1  
    21   19   20 1  
    22   19   21 ar 
    23   19   22 ar 
    24   20   23 1  
    25   23   24 ar 
    26   23   25 ar 
    27   23   26 ar 
    28    3   27 1  
    29    3   28 1  
    30    3   29 1  
    31    6   30 1  
    32    6   31 1  
    33    8   32 1  
    34    9   33 1  
    35    9   34 1  
    36   11   35 1  
    37   15   36 1  
    38   15   37 1  
    39   15   38 1  
    40   16   39 1  
    41   16   40 1  
    42   17   41 1  
    43   17   42 1  
@<TRIPOS>SUBSTRUCTURE
     1 TDP         1

