### 
### Created by X-TOOL on Fri Sep 26 17:34:39 2014
### 

@<TRIPOS>MOLECULE
3b7r_ligand
   55    56     1     0     0
SMALL
GAST_HUCK


@<TRIPOS>ATOM
      1 C3         32.8250    2.6140    0.8130 C.3       1 BIR        -0.0049
      2 C2         34.2170    2.3640    1.4430 C.3       1 BIR         0.0344
      3 N1         34.1820    1.3220    2.4450 N.4       1 BIR         0.2334
      4 P4         34.9260    3.8990    2.2280 P.3       1 BIR         0.0378
      5 O6         36.3960    3.6750    2.6340 O.co2     1 BIR        -0.6154
      6 O5         34.0400    4.0820    3.5170 O.co2     1 BIR        -0.6154
      7 C7         34.5310    5.3200    1.1620 C.3       1 BIR         0.0401
      8 C8         34.7190    6.6990    1.7610 C.3       1 BIR         0.0744
      9 C10        34.4030    7.6590    0.6470 C.2       1 BIR         0.1843
     10 O23        35.0260    7.5960   -0.3910 O.2       1 BIR        -0.3964
     11 N24        33.1880    8.2850    0.7060 N.am      1 BIR        -0.2712
     12 C25        32.6930    9.0770   -0.3730 C.3       1 BIR         0.0915
     13 C26        31.4260    9.8110    0.0460 C.3       1 BIR        -0.0300
     14 C27        33.7680   10.1380   -0.7670 C.2       1 BIR         0.0598
     15 O28        33.9410   10.2050   -2.0880 O.co2     1 BIR        -0.5666
     16 O29        34.3970   10.8460    0.0160 O.co2     1 BIR        -0.5666
     17 C9         36.1370    7.0320    2.2490 C.3       1 BIR         0.0026
     18 C11        36.2480    8.4320    2.8160 C.ar      1 BIR        -0.0395
     19 C12        36.3890    9.5610    1.9820 C.ar      1 BIR        -0.0588
     20 C13        36.3110   10.8720    2.4490 C.ar      1 BIR        -0.0600
     21 C14        36.1590   11.0730    3.8250 C.ar      1 BIR        -0.0242
     22 C15        35.9600    9.9610    4.6360 C.ar      1 BIR        -0.0600
     23 C16        36.0170    8.6500    4.1580 C.ar      1 BIR        -0.0588
     24 C17        36.0680   12.4610    4.3410 C.ar      1 BIR        -0.0221
     25 C18        35.2070   12.7980    5.4030 C.ar      1 BIR        -0.0557
     26 C19        35.1200   14.1300    5.8460 C.ar      1 BIR        -0.0622
     27 C20        35.8640   15.1660    5.2190 C.ar      1 BIR        -0.0627
     28 C21        36.7050   14.8250    4.1400 C.ar      1 BIR        -0.0622
     29 C22        36.7770   13.5090    3.6730 C.ar      1 BIR        -0.0557
     30 H1         32.4523    1.6810    0.3652 H         1 BIR         0.0301
     31 H2         32.9082    3.3867    0.0345 H         1 BIR         0.0301
     32 H3         32.1254    2.9519    1.5917 H         1 BIR         0.0301
     33 H4         34.8930    2.0454    0.6359 H         1 BIR         0.1062
     34 H5         33.8011    0.4805    2.0414 H         1 BIR         0.2012
     35 H6         33.6034    1.6166    3.2160 H         1 BIR         0.2012
     36 H7         35.1170    1.1425    2.7759 H         1 BIR         0.2012
     37 H8         33.4763    5.2284    0.8632 H         1 BIR         0.0496
     38 H9         35.1717    5.2548    0.2703 H         1 BIR         0.0496
     39 H10        34.0181    6.8253    2.5993 H         1 BIR         0.0577
     40 H11        32.6301    8.1846    1.5298 H         1 BIR         0.1875
     41 H12        32.4760    8.4279   -1.2341 H         1 BIR         0.0723
     42 H13        31.0576   10.4161   -0.7955 H         1 BIR         0.0270
     43 H14        31.6480   10.4676    0.9002 H         1 BIR         0.0270
     44 H15        30.6573    9.0795    0.3358 H         1 BIR         0.0270
     45 H16        36.8314    6.9401    1.4009 H         1 BIR         0.0457
     46 H17        36.4174    6.3123    3.0322 H         1 BIR         0.0457
     47 H18        36.5670    9.4009    0.9248 H         1 BIR         0.0560
     48 H19        36.3665   11.7116    1.7656 H         1 BIR         0.0609
     49 H20        35.7510   10.1191    5.6878 H         1 BIR         0.0609
     50 H21        35.8812    7.8135    4.8340 H         1 BIR         0.0560
     51 H22        34.6100   12.0292    5.8801 H         1 BIR         0.0615
     52 H23        34.4731   14.3711    6.6817 H         1 BIR         0.0615
     53 H24        35.7869   16.1916    5.5614 H         1 BIR         0.0610
     54 H25        37.3042   15.5939    3.6658 H         1 BIR         0.0615
     55 H26        37.3747   13.2809    2.7979 H         1 BIR         0.0615
@<TRIPOS>BOND
     1    1    2 1  
     2    2    3 1  
     3    2    4 1  
     4    4    5 ar 
     5    4    6 ar 
     6    4    7 1  
     7    7    8 1  
     8    8    9 1  
     9    8   17 1  
    10    9   10 2  
    11    9   11 am 
    12   11   12 1  
    13   12   13 1  
    14   12   14 1  
    15   14   15 ar 
    16   14   16 ar 
    17   17   18 1  
    18   18   19 ar 
    19   18   23 ar 
    20   19   20 ar 
    21   20   21 ar 
    22   21   22 ar 
    23   21   24 1  
    24   22   23 ar 
    25   24   25 ar 
    26   24   29 ar 
    27   25   26 ar 
    28   26   27 ar 
    29   27   28 ar 
    30   28   29 ar 
    31    1   30 1  
    32    1   31 1  
    33    1   32 1  
    34    2   33 1  
    35    3   34 1  
    36    3   35 1  
    37    3   36 1  
    38    7   37 1  
    39    7   38 1  
    40    8   39 1  
    41   11   40 1  
    42   12   41 1  
    43   13   42 1  
    44   13   43 1  
    45   13   44 1  
    46   17   45 1  
    47   17   46 1  
    48   19   47 1  
    49   20   48 1  
    50   22   49 1  
    51   23   50 1  
    52   25   51 1  
    53   26   52 1  
    54   27   53 1  
    55   28   54 1  
    56   29   55 1  
@<TRIPOS>SUBSTRUCTURE
     1 BIR         1

