### 
### Created by X-TOOL on Fri Sep 26 17:35:01 2014
### 

@<TRIPOS>MOLECULE
4kcx_ligand
   58    61     1     0     0
SMALL
GAST_HUCK


@<TRIPOS>ATOM
      1 C10        30.3720  -23.0180    3.4200 C.ar      1 1QK         0.0607
      2 N12        30.3870  -25.4450    2.7020 N.pl3     1 1QK        -0.2478
      3 C13        30.8550  -25.8490    3.9960 C.3       1 1QK         0.1353
      4 C15        28.3420  -26.0700    4.4540 C.ar      1 1QK         0.0562
      5 C17        27.5320  -27.1310    6.6070 C.ar      1 1QK         0.1196
      6 C22        30.7410  -20.8220    5.3750 C.3       1 1QK         0.0316
      7 C24        30.0220  -18.4510    5.9920 C.3       1 1QK        -0.0491
      8 C26        30.2830  -19.1000    3.6820 C.3       1 1QK         0.0445
      9 C28        32.0180  -19.0900    1.7430 C.3       1 1QK         0.0463
     10 C01        26.9130  -20.6060   -0.9180 C.3       1 1QK        -0.0468
     11 C02        28.3420  -21.0190   -1.2340 C.3       1 1QK         0.0090
     12 C03        28.7940  -22.3010   -0.4990 C.2       1 1QK         0.0831
     13 C04        28.7350  -23.6020   -0.9890 C.2       1 1QK         0.1357
     14 N05        29.2070  -24.4640   -0.0040 N.pl3     1 1QK        -0.1770
     15 N06        29.5680  -23.6740    1.1130 N.ar      1 1QK        -0.1777
     16 C07        29.2940  -22.3650    0.8170 C.ar      1 1QK         0.1660
     17 N08        29.5670  -21.3000    1.8040 N.ar      1 1QK        -0.2193
     18 C09        30.0900  -21.6310    3.0820 C.ar      1 1QK         0.1573
     19 C11        30.1110  -24.0410    2.4420 C.ar      1 1QK         0.1781
     20 C14        29.7270  -26.2840    4.9190 C.ar      1 1QK         0.1326
     21 C16        27.2370  -26.4870    5.3220 C.ar      1 1QK         0.0471
     22 N18        28.9240  -27.3330    7.0620 N.ar      1 1QK        -0.0824
     23 C19        30.0190  -26.9100    6.2040 C.ar      1 1QK         0.1505
     24 O20        29.1840  -27.8730    8.1600 O.2       1 1QK        -0.1658
     25 N21        30.3240  -20.5360    3.9940 N.pl3     1 1QK        -0.2826
     26 C23        30.3020  -19.8300    6.4390 C.3       1 1QK        -0.0324
     27 C25        29.4100  -18.3910    4.6640 C.3       1 1QK        -0.0295
     28 C27        31.6480  -18.7270    3.1580 C.3       1 1QK        -0.0064
     29 O29        30.9390  -19.0900    0.8320 O.3       1 1QK        -0.3949
     30 H1         30.7725  -23.2767    4.3935 H         1 1QK         0.0808
     31 H2         30.2470  -26.1459    1.9603 H         1 1QK         0.2094
     32 H3         31.3822  -25.0022    4.4597 H         1 1QK         0.1107
     33 H4         31.5519  -26.6909    3.8711 H         1 1QK         0.1107
     34 H5         28.1464  -25.6138    3.4903 H         1 1QK         0.1051
     35 H6         26.7137  -27.4650    7.2346 H         1 1QK         0.1546
     36 H7         31.8402  -20.8622    5.3899 H         1 1QK         0.0523
     37 H8         30.3343  -21.8066    5.6490 H         1 1QK         0.0523
     38 H9         30.9691  -17.8921    5.9665 H         1 1QK         0.0267
     39 H10        29.3382  -17.9810    6.7141 H         1 1QK         0.0267
     40 H11        29.6733  -19.0186    2.7701 H         1 1QK         0.0559
     41 H12        32.4587  -20.0978    1.7519 H         1 1QK         0.0558
     42 H13        32.7660  -18.3658    1.3880 H         1 1QK         0.0558
     43 H14        26.6643  -19.6905   -1.4748 H         1 1QK         0.0272
     44 H15        26.8162  -20.4165    0.1612 H         1 1QK         0.0272
     45 H16        26.2248  -21.4122   -1.2119 H         1 1QK         0.0272
     46 H17        29.0134  -20.1973   -0.9441 H         1 1QK         0.0567
     47 H18        28.4219  -21.1931   -2.3172 H         1 1QK         0.0567
     48 H19        28.3798  -23.8956   -1.9757 H         1 1QK         0.1462
     49 H20        29.2802  -25.4889   -0.0749 H         1 1QK         0.2864
     50 H21        26.2101  -26.3210    5.0171 H         1 1QK         0.1042
     51 H22        31.0460  -27.0589    6.5172 H         1 1QK         0.1437
     52 H23        31.0995  -19.7788    7.1948 H         1 1QK         0.0285
     53 H24        29.3839  -20.2225    6.9007 H         1 1QK         0.0285
     54 H25        29.2947  -17.3401    4.3604 H         1 1QK         0.0288
     55 H26        28.4225  -18.8747    4.6930 H         1 1QK         0.0288
     56 H27        32.3869  -19.2071    3.8163 H         1 1QK         0.0310
     57 H28        31.7369  -17.6339    3.2428 H         1 1QK         0.0310
     58 H29        30.2865  -19.7194    1.1157 H         1 1QK         0.2094
@<TRIPOS>BOND
     1   18    1 ar 
     2    1   19 ar 
     3    2    3 1  
     4   19    2 1  
     5    3   20 1  
     6   20    4 ar 
     7    4   21 ar 
     8   21    5 ar 
     9    5   22 ar 
    10   25    6 1  
    11    6   26 1  
    12   26    7 1  
    13   27    7 1  
    14   25    8 1  
    15    8   27 1  
    16    8   28 1  
    17   28    9 1  
    18    9   29 1  
    19   11   10 1  
    20   12   11 1  
    21   12   13 2  
    22   16   12 1  
    23   14   13 1  
    24   15   14 1  
    25   16   15 ar 
    26   19   15 ar 
    27   17   16 ar 
    28   18   17 ar 
    29   18   25 1  
    30   20   23 ar 
    31   22   23 ar 
    32   22   24 2  
    33    1   30 1  
    34    2   31 1  
    35    3   32 1  
    36    3   33 1  
    37    4   34 1  
    38    5   35 1  
    39    6   36 1  
    40    6   37 1  
    41    7   38 1  
    42    7   39 1  
    43    8   40 1  
    44    9   41 1  
    45    9   42 1  
    46   10   43 1  
    47   10   44 1  
    48   10   45 1  
    49   11   46 1  
    50   11   47 1  
    51   13   48 1  
    52   14   49 1  
    53   21   50 1  
    54   23   51 1  
    55   26   52 1  
    56   26   53 1  
    57   27   54 1  
    58   27   55 1  
    59   28   56 1  
    60   28   57 1  
    61   29   58 1  
@<TRIPOS>SUBSTRUCTURE
     1 1QK         1

