### 
### Created by X-TOOL on Fri Sep 26 17:34:39 2014
### 

@<TRIPOS>MOLECULE
2i4d_ligand
   84    87     1     0     0
SMALL
GAST_HUCK


@<TRIPOS>ATOM
      1 C          11.8880   18.1870   18.3200 C.3       1 QFI         0.0449
      2 O          10.7650   18.5040   20.4450 O.3       1 QFI        -0.3480
      3 C5         12.7890   19.0500   19.2100 C.3       1 QFI         0.1189
      4 O4         12.7450   20.4310   18.8200 O.3       1 QFI        -0.2578
      5 C4         13.8170   20.9230   18.1820 C.2       1 QFI         0.3203
      6 N1         13.5720   22.2150   17.8840 N.am      1 QFI        -0.2552
      7 C6         14.5400   23.0230   17.1870 C.3       1 QFI         0.0793
      8 C7         14.8430   24.2050   18.1340 C.3       1 QFI         0.0965
      9 C15        16.0080   25.0840   17.6070 C.3       1 QFI         0.0578
     10 N2         17.2520   24.2810   17.5830 N.am      1 QFI        -0.2325
     11 C16        18.2170   24.9380   18.4890 C.3       1 QFI         0.0319
     12 C17        18.2920   24.2540   19.8790 C.3       1 QFI        -0.0296
     13 C24        17.3970   23.0000   19.9170 C.3       1 QFI        -0.0612
     14 C25        19.7320   23.7940   20.1280 C.3       1 QFI        -0.0612
     15 S          17.8980   24.1240   16.0130 S.o2      1 QFI         0.0657
     16 C18        18.7970   25.5560   15.5710 C.ar      1 QFI         0.0971
     17 C19        18.1530   26.6210   14.9190 C.ar      1 QFI        -0.0440
     18 C20        18.8750   27.7800   14.5790 C.ar      1 QFI        -0.0313
     19 C21        20.2390   27.8860   14.8860 C.ar      1 QFI         0.0908
     20 O1         20.9390   29.0520   14.5460 O.3       1 QFI        -0.3212
     21 C26        22.3110   29.1180   14.9730 C.3       1 QFI         0.0594
     22 C22        20.8840   26.8120   15.5340 C.ar      1 QFI        -0.0313
     23 C23        20.1640   25.6510   15.8760 C.ar      1 QFI        -0.0440
     24 O7         16.7850   23.9020   15.0420 O.2       1 QFI        -0.1515
     25 O8         18.8160   22.9420   15.9990 O.2       1 QFI        -0.1515
     26 O6         13.6600   24.9760   18.2350 O.3       1 QFI        -0.3878
     27 C8         13.9410   23.5430   15.8580 C.3       1 QFI         0.0013
     28 C9         13.3360   22.4110   15.0340 C.ar      1 QFI        -0.0515
     29 C10        14.1720   21.5410   14.3040 C.ar      1 QFI        -0.0687
     30 C12        13.6060   20.4980   13.5440 C.ar      1 QFI        -0.0395
     31 C14        12.2020   20.3270   13.5130 C.ar      1 QFI         0.0859
     32 O40        11.6400   19.2980   12.7640 O.3       1 QFI        -0.3051
     33 C41        11.9150   18.0090   13.2920 C.3       1 QFI         0.1383
     34 P42        11.0470   16.7420   12.3170 P.3       1 QFI         0.0895
     35 O45         9.4740   17.0070   12.3670 O.co2     1 QFI        -0.5605
     36 O44        11.3580   15.4140   12.8920 O.co2     1 QFI        -0.5605
     37 O43        11.5320   16.8010   10.7980 O.co2     1 QFI        -0.5605
     38 C13        11.3700   21.1990   14.2470 C.ar      1 QFI        -0.0395
     39 C11        11.9370   22.2400   15.0050 C.ar      1 QFI        -0.0687
     40 O5         14.8380   20.3070   17.9020 O.2       1 QFI        -0.3775
     41 C3         12.1230   18.9920   20.6050 C.3       1 QFI         0.0815
     42 C27        10.5480   18.2190   19.0560 C.3       1 QFI         0.1648
     43 O9          9.7560   19.2330   18.4350 O.3       1 QFI        -0.3509
     44 C2         10.0700   19.2190   17.0400 C.3       1 QFI         0.0512
     45 C1         11.5620   18.8440   16.9610 C.3       1 QFI        -0.0191
     46 H1         12.2974   17.1742   18.1907 H         1 QFI         0.0380
     47 H2         13.8223   18.6731   19.2192 H         1 QFI         0.0675
     48 H3         12.6988   22.6215   18.1528 H         1 QFI         0.1873
     49 H4         15.4534   22.4454   16.9819 H         1 QFI         0.0602
     50 H5         15.1158   23.8150   19.1257 H         1 QFI         0.0634
     51 H6         16.1430   25.9516   18.2695 H         1 QFI         0.0504
     52 H7         15.7752   25.4320   16.5898 H         1 QFI         0.0504
     53 H8         17.9124   25.9858   18.6281 H         1 QFI         0.0480
     54 H9         19.2141   24.9044   18.0258 H         1 QFI         0.0480
     55 H10        17.9774   24.9638   20.6582 H         1 QFI         0.0311
     56 H11        17.4648   22.5311   20.9097 H         1 QFI         0.0233
     57 H12        17.7332   22.2861   19.1506 H         1 QFI         0.0233
     58 H13        16.3541   23.2876   19.7179 H         1 QFI         0.0233
     59 H14        20.4037   24.6649   20.1083 H         1 QFI         0.0233
     60 H15        20.0306   23.0829   19.3437 H         1 QFI         0.0233
     61 H16        19.7957   23.3041   21.1108 H         1 QFI         0.0233
     62 H17        17.0986   26.5498   14.6776 H         1 QFI         0.0608
     63 H18        18.3724   28.5978   14.0754 H         1 QFI         0.0542
     64 H19        22.7501   30.0732   14.6495 H         1 QFI         0.0577
     65 H20        22.8745   28.2855   14.5264 H         1 QFI         0.0577
     66 H21        22.3576   29.0458   16.0696 H         1 QFI         0.0577
     67 H22        21.9398   26.8806   15.7701 H         1 QFI         0.0542
     68 H23        20.6658   24.8300   16.3752 H         1 QFI         0.0608
     69 H24        12.9536   24.4292   18.5581 H         1 QFI         0.2100
     70 H25        14.7373   24.0250   15.2719 H         1 QFI         0.0428
     71 H26        13.1555   24.2791   16.0843 H         1 QFI         0.0428
     72 H27        15.2475   21.6743   14.3274 H         1 QFI         0.0530
     73 H28        14.2463   19.8268   12.9832 H         1 QFI         0.0525
     74 H29        11.5737   17.9624   14.3367 H         1 QFI         0.0805
     75 H30        12.9982   17.8217   13.2514 H         1 QFI         0.0805
     76 H31        10.2943   21.0669   14.2269 H         1 QFI         0.0525
     77 H32        11.2976   22.9110   15.5671 H         1 QFI         0.0530
     78 H33        12.6880   18.3108   21.2582 H         1 QFI         0.0590
     79 H34        12.1063   19.9975   21.0506 H         1 QFI         0.0590
     80 H35        10.0438   17.2459   18.9622 H         1 QFI         0.0913
     81 H36         9.8984   20.2110   16.5968 H         1 QFI         0.0561
     82 H37         9.4570   18.4717   16.5149 H         1 QFI         0.0561
     83 H38        11.7384   18.1357   16.1381 H         1 QFI         0.0293
     84 H39        12.1779   19.7427   16.8096 H         1 QFI         0.0293
@<TRIPOS>BOND
     1    1    3 1  
     2   42    1 1  
     3    1   45 1  
     4    2   41 1  
     5    2   42 1  
     6    3    4 1  
     7    3   41 1  
     8    4    5 1  
     9    5    6 am 
    10    5   40 2  
    11    6    7 1  
    12    7    8 1  
    13    7   27 1  
    14    8    9 1  
    15    8   26 1  
    16    9   10 1  
    17   10   11 1  
    18   10   15 am 
    19   11   12 1  
    20   12   13 1  
    21   12   14 1  
    22   15   16 1  
    23   15   24 2  
    24   15   25 2  
    25   16   17 ar 
    26   16   23 ar 
    27   17   18 ar 
    28   18   19 ar 
    29   19   20 1  
    30   19   22 ar 
    31   20   21 1  
    32   22   23 ar 
    33   27   28 1  
    34   28   29 ar 
    35   28   39 ar 
    36   29   30 ar 
    37   30   31 ar 
    38   31   32 1  
    39   31   38 ar 
    40   32   33 1  
    41   33   34 1  
    42   34   35 ar 
    43   34   36 ar 
    44   34   37 ar 
    45   38   39 ar 
    46   42   43 1  
    47   43   44 1  
    48   44   45 1  
    49    1   46 1  
    50    3   47 1  
    51    6   48 1  
    52    7   49 1  
    53    8   50 1  
    54    9   51 1  
    55    9   52 1  
    56   11   53 1  
    57   11   54 1  
    58   12   55 1  
    59   13   56 1  
    60   13   57 1  
    61   13   58 1  
    62   14   59 1  
    63   14   60 1  
    64   14   61 1  
    65   17   62 1  
    66   18   63 1  
    67   21   64 1  
    68   21   65 1  
    69   21   66 1  
    70   22   67 1  
    71   23   68 1  
    72   26   69 1  
    73   27   70 1  
    74   27   71 1  
    75   29   72 1  
    76   30   73 1  
    77   33   74 1  
    78   33   75 1  
    79   38   76 1  
    80   39   77 1  
    81   41   78 1  
    82   41   79 1  
    83   42   80 1  
    84   44   81 1  
    85   44   82 1  
    86   45   83 1  
    87   45   84 1  
@<TRIPOS>SUBSTRUCTURE
     1 QFI         1

