### 
### Created by X-TOOL on Fri Sep 26 17:34:26 2014
### 

@<TRIPOS>MOLECULE
1rp7_ligand
   42    43     1     0     0
SMALL
GAST_HUCK


@<TRIPOS>ATOM
      1 N1         26.8550  -36.6420    7.9760 N.ar      1 TZD        -0.2937
      2 C2         27.5730  -37.5100    8.7760 C.ar      1 TZD         0.0758
      3 C2A        27.5250  -38.9560    8.4210 C.3       1 TZD        -0.0029
      4 N4         28.3060  -37.1010    9.8140 N.ar      1 TZD        -0.2609
      5 C5         28.3570  -35.7320   10.1070 C.ar      1 TZD         0.1237
      6 N6         29.1190  -35.3850   11.1210 N.pl3     1 TZD        -0.3186
      7 C7         27.5980  -34.7660    9.2700 C.ar      1 TZD         0.0470
      8 C8         26.8740  -35.2860    8.2260 C.ar      1 TZD         0.0088
      9 C35        27.5830  -33.2690    9.4980 C.3       1 TZD         0.0903
     10 N3         26.9290  -32.8530   10.8070 N.am      1 TZD        -0.2188
     11 C2         27.6390  -32.5760   11.9350 C.2       1 TZD         0.2657
     12 OC2        28.8740  -32.6730   12.0850 O.2       1 TZD        -0.3848
     13 S1         26.5460  -32.0710   13.2170 S.3       1 TZD        -0.0112
     14 C5         25.1530  -32.2660   12.1810 C.2       1 TZD         0.0032
     15 C4         25.5170  -32.6810   10.9290 C.2       1 TZD         0.0371
     16 C4A        24.5980  -32.9440    9.7640 C.3       1 TZD        -0.0222
     17 C5A        23.7660  -32.0640   12.7000 C.3       1 TZD        -0.0063
     18 C5B        23.5580  -32.7590   14.0120 C.3       1 TZD         0.0872
     19 O5G        22.1430  -32.8900   14.2210 O.3       1 TZD        -0.2452
     20 P1         21.5720  -33.7640   15.4290 P.3       1 TZD         0.3276
     21 O11        22.3700  -33.2020   16.6960 O.3       1 TZD        -0.1548
     22 O12        20.1370  -33.4400   15.5840 O.co2     1 TZD        -0.5556
     23 O13        21.9760  -35.1850   15.2240 O.co2     1 TZD        -0.5556
     24 P2         22.3160  -31.8670   17.5750 P.3       1 TZD         0.2069
     25 O21        22.3320  -32.3180   19.0680 O.co2     1 TZD        -0.5891
     26 O22        23.5540  -31.1030   17.2820 O.co2     1 TZD        -0.5891
     27 O23        21.0240  -31.2100   17.2810 O.co2     1 TZD        -0.5891
     28 H1         26.8748  -39.0971    7.5450 H         1 TZD         0.0449
     29 H2         27.1251  -39.5291    9.2705 H         1 TZD         0.0449
     30 H3         28.5396  -39.3096    8.1852 H         1 TZD         0.0449
     31 H4         29.2002  -34.3937   11.3887 H         1 TZD         0.1789
     32 H5         29.6347  -36.1045   11.6476 H         1 TZD         0.1789
     33 H6         26.3072  -34.6188    7.5868 H         1 TZD         0.0791
     34 H7         27.0325  -32.7978    8.6704 H         1 TZD         0.0734
     35 H8         28.6221  -32.9082    9.4997 H         1 TZD         0.0734
     36 H9         23.5580  -32.7531   10.0671 H         1 TZD         0.0363
     37 H10        24.7005  -33.9918    9.4453 H         1 TZD         0.0363
     38 H11        24.8646  -32.2791    8.9293 H         1 TZD         0.0363
     39 H12        23.0495  -32.4638   11.9674 H         1 TZD         0.0355
     40 H13        23.5894  -30.9868   12.8354 H         1 TZD         0.0355
     41 H14        24.0026  -32.1654   14.8244 H         1 TZD         0.0633
     42 H15        24.0260  -33.7541   13.9865 H         1 TZD         0.0633
@<TRIPOS>BOND
     1    1    2 ar 
     2    1    8 ar 
     3    2    3 1  
     4    2    4 ar 
     5    4    5 ar 
     6    5    6 1  
     7    5    7 ar 
     8    7    8 ar 
     9    7    9 1  
    10    9   10 1  
    11   10   11 am 
    12   10   15 1  
    13   11   12 2  
    14   11   13 1  
    15   13   14 1  
    16   14   15 2  
    17   14   17 1  
    18   15   16 1  
    19   17   18 1  
    20   18   19 1  
    21   19   20 1  
    22   20   21 1  
    23   20   22 ar 
    24   20   23 ar 
    25   21   24 1  
    26   24   25 ar 
    27   24   26 ar 
    28   24   27 ar 
    29    3   28 1  
    30    3   29 1  
    31    3   30 1  
    32    6   31 1  
    33    6   32 1  
    34    8   33 1  
    35    9   34 1  
    36    9   35 1  
    37   16   36 1  
    38   16   37 1  
    39   16   38 1  
    40   17   39 1  
    41   17   40 1  
    42   18   41 1  
    43   18   42 1  
@<TRIPOS>SUBSTRUCTURE
     1 TZD         1

