1i9q_ligand

Created by X-TOOL on Fri Sep 26 17:34:18 2014
 34 35  0  0  0  0  0  0  0  0999 V2000
   -3.7720    3.2670   14.7290  C 0  0  0  2  0  3
   -4.2660    2.2060   15.4840  C 0  0  0  2  0  3
   -5.6340    2.1660   15.8590  C 0  0  0  1  0  3
   -6.4410    3.2220   15.4350  C 0  0  0  2  0  3
   -5.9110    4.2760   14.6760  C 0  0  0  2  0  3
   -4.5780    4.3180   14.3170  C 0  0  0  1  0  3
   -4.0060    5.4890   13.5130  C 0  0  0  1  0  3
   -4.8270    6.3470   13.2270  O 0  0  0  1  0  1
   -2.6290    5.6780   13.0980  N 0  0  0  2  0  3
   -2.2970    6.9410   12.3870  C 0  0  0  3  0  4
   -6.1870    0.7660   16.8500  S 0  0  0  1  0  4
   -5.8180   -0.6690   16.1170  N 0  0  0  3  0  3
   -7.5890    1.0630   16.9860  O 0  0  0  1  0  1
   -5.5180    0.9770   18.1320  O 0  0  0  1  0  1
   -1.5690    7.9520   13.1180  C 0  0  0  1  0  3
   -0.5440    8.7650   12.4900  C 0  0  0  2  0  3
    0.1500    9.7570   13.3030  C 0  0  0  1  0  3
   -0.1770    9.9210   14.6870  C 0  0  0  1  0  3
   -1.1880    9.1150   15.2960  C 0  0  0  1  0  3
   -1.8790    8.1410   14.5300  C 0  0  0  2  0  3
    1.1020   10.5220   12.7500  F 0  0  0  1  0  1
    0.4650   10.8350   15.4260  F 0  0  0  1  0  1
   -1.4990    9.2620   16.5900  F 0  0  0  1  0  1
   -2.7234    3.2716   14.4544  H 0  0  0  1  0  1
   -3.6010    1.4054   15.7872  H 0  0  0  1  0  1
   -7.4931    3.2282   15.6959  H 0  0  0  1  0  1
   -6.5664    5.0805   14.3623  H 0  0  0  1  0  1
   -1.9307    4.9864   13.2827  H 0  0  0  1  0  1
   -3.2450    7.3920   12.0585  H 0  0  0  1  0  1
   -1.6937    6.6737   11.5069  H 0  0  0  1  0  1
   -6.0665   -1.5328   16.5553  H 0  0  0  1  0  1
   -5.3462   -0.6733   15.2353  H 0  0  0  1  0  1
   -0.3000    8.6379   11.4415  H 0  0  0  1  0  1
   -2.6438    7.5323   14.9985  H 0  0  0  1  0  1
  1  2  4  0  0  1
  1  6  4  0  0  1
  2  3  4  0  0  1
  3  4  4  0  0  1
  3 11  1  0  0  2
  4  5  4  0  0  1
  5  6  4  0  0  1
  6  7  1  0  0  2
  7  8  2  0  0  2
  7  9  1  0  0  2
  9 10  1  0  0  2
 10 15  1  0  0  2
 11 12  1  0  0  2
 11 13  2  0  0  2
 11 14  2  0  0  2
 15 16  4  0  0  1
 15 20  4  0  0  1
 16 17  4  0  0  1
 17 18  4  0  0  1
 17 21  1  0  0  2
 18 19  4  0  0  1
 18 22  1  0  0  2
 19 20  4  0  0  1
 19 23  1  0  0  2
  1 24  1  0  0  2
  2 25  1  0  0  2
  4 26  1  0  0  2
  5 27  1  0  0  2
  9 28  1  0  0  2
 10 29  1  0  0  2
 10 30  1  0  0  2
 12 31  1  0  0  2
 12 32  1  0  0  2
 16 33  1  0  0  2
 20 34  1  0  0  2
M  END
> <MOLECULAR_FORMULA>
C14H11N2O3SF3

> <MOLECULAR_WEIGHT>
344.2

> <NUM_HB_ATOMS>
5  

> <NUM_ROTOR>
3  

> <XLOGP2>
2.13 

$$$$
