### 
### Created by X-TOOL on Fri Sep 26 17:34:41 2014
### 

@<TRIPOS>MOLECULE
3c52_ligand
   14    13     1     0     0
SMALL
GAST_HUCK


@<TRIPOS>ATOM
      1 C1          2.5700    1.6100    5.0970 C.2       1 PGH         0.2297
      2 C2          1.9770    2.7250    5.9670 C.3       1 PGH         0.1686
      3 N2          2.9480    0.3380    5.7000 N.am      1 PGH        -0.1620
      4 O2          4.1540   -0.2820    5.3340 O.3       1 PGH        -0.2717
      5 O1          2.7210    1.7830    3.9320 O.2       1 PGH        -0.3940
      6 O1P         1.7490    3.8650    5.1780 O.3       1 PGH        -0.2560
      7 O2P         0.2310    6.0680    4.8180 O.co2     1 PGH        -0.5536
      8 O3P         0.3060    4.8640    7.2280 O.co2     1 PGH        -0.5536
      9 O4P         2.3180    6.0950    6.2730 O.co2     1 PGH        -0.5536
     10 P           1.1870    5.2510    5.8870 P.3       1 PGH         0.2041
     11 H1          2.6812    2.9733    6.7747 H         1 PGH         0.0857
     12 H2          1.0258    2.3840    6.4017 H         1 PGH         0.0857
     13 H3          2.3486   -0.0933    6.3744 H         1 PGH         0.2217
     14 H4          4.2490   -1.0959    5.8147 H         1 PGH         0.2490
@<TRIPOS>BOND
     1    1    2 1  
     2    1    3 am 
     3    1    5 2  
     4    2    6 1  
     5    3    4 1  
     6    6   10 1  
     7   10    7 ar 
     8   10    8 ar 
     9   10    9 ar 
    10    2   11 1  
    11    2   12 1  
    12    3   13 1  
    13    4   14 1  
@<TRIPOS>SUBSTRUCTURE
     1 PGH         1

