### 
### Created by X-TOOL on Fri Sep 26 17:34:26 2014
### 

@<TRIPOS>MOLECULE
2bes_ligand
   22    21     1     0     0
SMALL
GAST_HUCK


@<TRIPOS>ATOM
      1 O7         30.5130  -11.4690   16.4630 O.co2     1 RES        -0.5537
      2 P          29.2420  -12.2410   16.2280 P.3       1 RES         0.2008
      3 O5         28.8470  -13.1710   17.3450 O.co2     1 RES        -0.5537
      4 O6         29.1700  -12.8640   14.8550 O.co2     1 RES        -0.5537
      5 O4         28.0880  -11.1230   16.2340 O.3       1 RES        -0.2733
      6 C4         28.0510  -10.1170   15.2250 C.3       1 RES         0.1089
      7 C3         26.6670   -9.4860   15.2190 C.3       1 RES         0.1256
      8 O3         26.4600   -8.7970   16.4440 O.3       1 RES        -0.3842
      9 C2         26.4800   -8.5020   14.0680 C.3       1 RES         0.1733
     10 O2         26.8220   -9.1040   12.8270 O.3       1 RES        -0.3687
     11 C1         25.0430   -8.0730   14.0590 C.2       1 RES         0.2304
     12 O1         24.1510   -8.9040   13.9880 O.2       1 RES        -0.3940
     13 N          24.8010   -6.7720   14.1530 N.am      1 RES        -0.1620
     14 ON         23.4690   -6.3490   14.1590 O.3       1 RES        -0.2717
     15 H1         28.2564  -10.5690   14.2434 H         1 RES         0.0641
     16 H2         28.8077   -9.3482   15.4403 H         1 RES         0.0641
     17 H3         25.9188  -10.2865   15.1219 H         1 RES         0.0672
     18 H4         26.5274   -9.4104   17.1663 H         1 RES         0.2102
     19 H5         27.1243   -7.6251   14.2286 H         1 RES         0.0864
     20 H6         26.6982   -8.4746   12.1263 H         1 RES         0.2134
     21 H7         25.5502   -6.1129   14.2177 H         1 RES         0.2217
     22 H8         23.4389   -5.4022   14.2303 H         1 RES         0.2490
@<TRIPOS>BOND
     1    1    2 ar 
     2    2    3 ar 
     3    2    4 ar 
     4    2    5 1  
     5    5    6 1  
     6    6    7 1  
     7    7    8 1  
     8    7    9 1  
     9    9   10 1  
    10    9   11 1  
    11   11   12 2  
    12   11   13 am 
    13   13   14 1  
    14    6   15 1  
    15    6   16 1  
    16    7   17 1  
    17    8   18 1  
    18    9   19 1  
    19   10   20 1  
    20   13   21 1  
    21   14   22 1  
@<TRIPOS>SUBSTRUCTURE
     1 RES         1

