### 
### Created by X-TOOL on Sat Nov 28 16:08:00 2015
### 

@<TRIPOS>MOLECULE
4o9w_ligand
   87    86     1     0     0
SMALL
GAST_HUCK


@<TRIPOS>ATOM
      1 N           4.1940   15.9780   19.1400 N.4       1 VAL         0.2381
      2 CA          3.8470   15.8230   17.7330 C.3       1 VAL         0.0673
      3 C           3.0050   14.5520   17.4990 C.2       1 VAL         0.2270
      4 O           2.9620   13.6450   18.3370 O.2       1 VAL        -0.3907
      5 CB          5.1120   15.8800   16.8310 C.3       1 VAL         0.0139
      6 CG1         5.9120   14.5950   16.9190 C.3       1 VAL        -0.0553
      7 CG2         4.7530   16.2060   15.3890 C.3       1 VAL        -0.0553
      8 N           2.3050   14.5160   16.3720 N.am      1 VAL        -0.2610
      9 CA          1.3300   13.4750   16.0900 C.3       1 VAL         0.1313
     10 C           1.6690   12.8430   14.7600 C.2       1 VAL         0.2040
     11 O           2.3370   13.4580   13.9290 O.2       1 VAL        -0.3944
     12 CB         -0.0650   14.0950   15.9500 C.3       1 VAL        -0.0101
     13 CG         -0.5520   15.0810   17.0040 C.3       1 VAL        -0.0425
     14 CD1        -1.7650   15.7930   16.4770 C.3       1 VAL        -0.0625
     15 CD2        -0.9070   14.3360   18.2470 C.3       1 VAL        -0.0625
     16 N           1.1670   11.6350   14.5420 N.am      1 VAL        -0.2616
     17 CA          1.1430   11.0640   13.2040 C.3       1 VAL         0.1539
     18 C           0.1000   11.8220   12.3870 C.2       1 VAL         0.2063
     19 O          -0.4980   12.7860   12.8820 O.2       1 VAL        -0.3943
     20 CB          0.8520    9.5630   13.2300 C.3       1 VAL         0.0843
     21 OG         -0.3960    9.2530   13.8440 O.3       1 VAL        -0.3903
     22 N          -0.1070   11.3950   11.1440 N.am      1 VAL        -0.2610
     23 CA         -0.9280   12.1300   10.1790 C.3       1 VAL         0.1612
     24 CB         -0.8400   11.4510    8.8020 C.3       1 VAL         0.1262
     25 CG2        -1.7160   12.2140    7.8110 C.3       1 VAL        -0.0298
     26 OG1         0.5180   11.5800    8.3870 O.3       1 VAL        -0.2685
     27 P           1.3410   10.1820    8.3080 P.3       1 VAL         0.2014
     28 O1P         2.6820   10.6300    7.8650 O.co2     1 VAL        -0.5537
     29 O2P         1.3750    9.4760    9.7460 O.co2     1 VAL        -0.5537
     30 O3P         0.6410    9.2450    7.2070 O.co2     1 VAL        -0.5537
     31 C          -2.3830   12.2940   10.6280 C.2       1 VAL         0.2068
     32 O          -3.0260   11.3300   11.0780 O.2       1 VAL        -0.3943
     33 N          -2.8820   13.5280   10.5430 N.am      1 VAL        -0.2636
     34 CA         -4.2470   13.8170   10.9860 C.3       1 VAL         0.1309
     35 C          -5.2570   13.2370   10.0170 C.2       1 VAL         0.1992
     36 O          -4.9860   13.1360    8.8140 O.2       1 VAL        -0.3947
     37 CB         -4.4860   15.3230   11.1100 C.3       1 VAL        -0.0101
     38 CG         -3.5430   16.1330   11.9870 C.3       1 VAL        -0.0425
     39 CD1        -4.1600   17.4910   12.2790 C.3       1 VAL        -0.0625
     40 CD2        -3.2500   15.4090   13.2620 C.3       1 VAL        -0.0625
     41 N          -6.4160   12.8490   10.5420 N.am      1 VAL        -0.2990
     42 H           3.3563   15.9370   19.6991 H         1 VAL         0.2015
     43 H           4.6471   16.8677   19.2783 H         1 VAL         0.2015
     44 H           4.8186   15.2364   19.4157 H         1 VAL         0.2015
     45 H           3.2165   16.6808   17.4562 H         1 VAL         0.1101
     46 H           5.7495   16.6942   17.2062 H         1 VAL         0.0376
     47 H           6.7974   14.6692   16.2705 H         1 VAL         0.0236
     48 H           5.2873   13.7510   16.5913 H         1 VAL         0.0236
     49 H           6.2317   14.4326   17.9589 H         1 VAL         0.0236
     50 H           4.1745   17.1410   15.3576 H         1 VAL         0.0236
     51 H           4.1508   15.3879   14.9671 H         1 VAL         0.0236
     52 H           5.6742   16.3249   14.7997 H         1 VAL         0.0236
     53 H           2.4539   15.2325   15.6905 H         1 VAL         0.1884
     54 H           1.3374   12.7217   16.8916 H         1 VAL         0.0800
     55 H          -0.7852   13.2638   15.9312 H         1 VAL         0.0315
     56 H          -0.0869   14.6210   14.9842 H         1 VAL         0.0315
     57 H           0.2401   15.8116   17.2249 H         1 VAL         0.0298
     58 H          -2.1262   16.5086   17.2303 H         1 VAL         0.0232
     59 H          -2.5552   15.0594   16.2596 H         1 VAL         0.0232
     60 H          -1.5019   16.3326   15.5552 H         1 VAL         0.0232
     61 H          -0.0164   13.8161   18.6298 H         1 VAL         0.0232
     62 H          -1.6927   13.5999   18.0216 H         1 VAL         0.0232
     63 H          -1.2735   15.0427   19.0061 H         1 VAL         0.0232
     64 H           0.7995   11.1087   15.3087 H         1 VAL         0.1884
     65 H           2.1299   11.2105   12.7408 H         1 VAL         0.0823
     66 H           1.6538    9.0592   13.7898 H         1 VAL         0.0606
     67 H           0.8368    9.1899   12.1953 H         1 VAL         0.0606
     68 H          -1.0978    9.6769   13.3640 H         1 VAL         0.2097
     69 H           0.3159   10.5357   10.8563 H         1 VAL         0.1884
     70 H          -0.5022   13.1398   10.0845 H         1 VAL         0.0830
     71 H          -1.1438   10.3953    8.8587 H         1 VAL         0.0695
     72 H          -1.6572   11.7328    6.8236 H         1 VAL         0.0260
     73 H          -1.3632   13.2530    7.7341 H         1 VAL         0.0260
     74 H          -2.7587   12.2058    8.1613 H         1 VAL         0.0260
     75 H          -2.3167   14.2648   10.1721 H         1 VAL         0.1883
     76 H          -4.3958   13.3544   11.9728 H         1 VAL         0.0800
     77 H          -5.5013   15.4598   11.5105 H         1 VAL         0.0315
     78 H          -4.4317   15.7460   10.0960 H         1 VAL         0.0315
     79 H          -2.5978   16.2825   11.4446 H         1 VAL         0.0298
     80 H          -3.4770   18.0753   12.9131 H         1 VAL         0.0232
     81 H          -5.1182   17.3537   12.8015 H         1 VAL         0.0232
     82 H          -4.3313   18.0268   11.3337 H         1 VAL         0.0232
     83 H          -2.8045   14.4296   13.0334 H         1 VAL         0.0232
     84 H          -4.1841   15.2646   13.8247 H         1 VAL         0.0232
     85 H          -2.5458   16.0001   13.8659 H         1 VAL         0.0232
     86 H          -7.1248   12.4578    9.9550 H         1 VAL         0.1815
     87 H          -6.5785   12.9486   11.5237 H         1 VAL         0.1815
@<TRIPOS>BOND
     1    1    2 1  
     2    2    3 1  
     3    2    5 1  
     4    3    4 2  
     5    3    8 am 
     6    5    6 1  
     7    5    7 1  
     8    8    9 1  
     9    9   10 1  
    10    9   12 1  
    11   10   11 2  
    12   10   16 am 
    13   12   13 1  
    14   13   14 1  
    15   13   15 1  
    16   16   17 1  
    17   17   18 1  
    18   17   20 1  
    19   18   19 2  
    20   18   22 am 
    21   20   21 1  
    22   22   23 1  
    23   23   24 1  
    24   23   31 1  
    25   24   25 1  
    26   24   26 1  
    27   26   27 1  
    28   27   28 ar 
    29   27   29 ar 
    30   27   30 ar 
    31   31   32 2  
    32   31   33 am 
    33   33   34 1  
    34   34   35 1  
    35   34   37 1  
    36   35   36 2  
    37   35   41 am 
    38   37   38 1  
    39   38   39 1  
    40   38   40 1  
    41    1   42 1  
    42    1   43 1  
    43    1   44 1  
    44    2   45 1  
    45    5   46 1  
    46    6   47 1  
    47    6   48 1  
    48    6   49 1  
    49    7   50 1  
    50    7   51 1  
    51    7   52 1  
    52    8   53 1  
    53    9   54 1  
    54   12   55 1  
    55   12   56 1  
    56   13   57 1  
    57   14   58 1  
    58   14   59 1  
    59   14   60 1  
    60   15   61 1  
    61   15   62 1  
    62   15   63 1  
    63   16   64 1  
    64   17   65 1  
    65   20   66 1  
    66   20   67 1  
    67   21   68 1  
    68   22   69 1  
    69   23   70 1  
    70   24   71 1  
    71   25   72 1  
    72   25   73 1  
    73   25   74 1  
    74   33   75 1  
    75   34   76 1  
    76   37   77 1  
    77   37   78 1  
    78   38   79 1  
    79   39   80 1  
    80   39   81 1  
    81   39   82 1  
    82   40   83 1  
    83   40   84 1  
    84   40   85 1  
    85   41   86 1  
    86   41   87 1  
@<TRIPOS>SUBSTRUCTURE
     1 VAL         1

