### 
### Created by X-TOOL on Fri Sep 26 17:34:55 2014
### 

@<TRIPOS>MOLECULE
4fl2_ligand
   44    46     1     0     0
SMALL
GAST_HUCK


@<TRIPOS>ATOM
      1 PG        -33.4840   -9.4850   -6.1450 P.3       1 ANP         0.1803
      2 O1G       -34.4030   -8.7140   -5.1250 O.co2     1 ANP        -0.5454
      3 O2G       -32.5110   -8.5120   -6.8710 O.co2     1 ANP        -0.5454
      4 O3G       -34.4000  -10.2010   -7.1930 O.co2     1 ANP        -0.5454
      5 PB        -30.9870  -10.5120   -5.1120 P.3       1 ANP         0.2543
      6 O1B       -30.6780   -9.1670   -4.3930 O.co2     1 ANP        -0.6257
      7 O2B       -30.4980  -11.6940   -4.2790 O.co2     1 ANP        -0.6257
      8 N3B       -32.6410  -10.7180   -5.3230 N.am      1 ANP        -0.1803
      9 PA        -29.0170   -9.5660   -7.1500 P.3       1 ANP         0.2949
     10 O1A       -29.1090   -9.4860   -8.6960 O.co2     1 ANP        -0.6129
     11 O2A       -29.0000   -8.1690   -6.5000 O.co2     1 ANP        -0.6129
     12 O3A       -30.2120  -10.4620   -6.5250 O.3       1 ANP        -0.1431
     13 O5'       -27.6120  -10.2570   -6.8360 O.3       1 ANP        -0.2478
     14 C5'       -27.4340  -11.6640   -6.8960 C.3       1 ANP         0.1128
     15 C4'       -26.0510  -11.9900   -6.3870 C.3       1 ANP         0.1189
     16 O4'       -25.0710  -11.2060   -7.0940 O.3       1 ANP        -0.3364
     17 C3'       -25.8990  -11.6020   -4.9050 C.3       1 ANP         0.1149
     18 O3'       -26.4400  -12.6040   -4.0480 O.3       1 ANP        -0.3864
     19 C2'       -24.3750  -11.5370   -4.7970 C.3       1 ANP         0.1385
     20 O2'       -23.7870  -12.8500   -4.6990 O.3       1 ANP        -0.3836
     21 C1'       -24.0030  -10.9050   -6.1620 C.3       1 ANP         0.2010
     22 N9        -23.7700   -9.4520   -6.0660 N.pl3     1 ANP        -0.1919
     23 C8        -24.6640   -8.4250   -6.2940 C.2       1 ANP         0.1123
     24 N7        -24.0660   -7.2810   -6.1400 N.2       1 ANP        -0.2958
     25 C5        -22.7690   -7.4960   -5.7930 C.ar      1 ANP         0.1045
     26 C6        -21.6560   -6.6890   -5.4540 C.ar      1 ANP         0.1298
     27 N6        -21.6910   -5.2950   -5.4870 N.pl3     1 ANP        -0.3152
     28 N1        -20.5250   -7.3020   -5.0970 N.ar      1 ANP        -0.2698
     29 C2        -20.3840   -8.6060   -5.0770 C.ar      1 ANP         0.0533
     30 N3        -21.3890   -9.3890   -5.3800 N.ar      1 ANP        -0.2714
     31 C4        -22.5790   -8.8910   -5.7280 C.ar      1 ANP         0.1613
     32 H1        -33.1119  -11.5309   -4.9803 H         1 ANP         0.2132
     33 H2        -27.5381  -12.0079   -7.9357 H         1 ANP         0.0648
     34 H3        -28.1880  -12.1612   -6.2681 H         1 ANP         0.0648
     35 H4        -25.8557  -13.0641   -6.5216 H         1 ANP         0.0651
     36 H5        -26.3680  -10.6318   -4.6840 H         1 ANP         0.0648
     37 H6        -25.9836  -13.4242   -4.1941 H         1 ANP         0.2100
     38 H7        -24.0533  -10.9146   -3.9490 H         1 ANP         0.0676
     39 H8        -24.1223  -13.2890   -3.9261 H         1 ANP         0.2101
     40 H9        -23.0751  -11.3725   -6.5230 H         1 ANP         0.0996
     41 H10       -25.7116   -8.5537   -6.5622 H         1 ANP         0.1349
     42 H11       -20.8537   -4.7526   -5.2309 H         1 ANP         0.1820
     43 H12       -22.5542   -4.8080   -5.7674 H         1 ANP         0.1820
     44 H13       -19.4275   -9.0391   -4.8074 H         1 ANP         0.0996
@<TRIPOS>BOND
     1    1    2 ar 
     2    1    3 ar 
     3    1    4 ar 
     4    8    1 am 
     5    5    6 ar 
     6    5    7 ar 
     7    5    8 1  
     8   12    5 1  
     9    9   10 ar 
    10    9   11 ar 
    11    9   12 1  
    12    9   13 1  
    13   13   14 1  
    14   14   15 1  
    15   15   16 1  
    16   15   17 1  
    17   16   21 1  
    18   17   18 1  
    19   17   19 1  
    20   19   20 1  
    21   19   21 1  
    22   21   22 1  
    23   22   23 1  
    24   22   31 1  
    25   23   24 2  
    26   24   25 1  
    27   25   26 ar 
    28   25   31 ar 
    29   26   27 1  
    30   26   28 ar 
    31   28   29 ar 
    32   29   30 ar 
    33   30   31 ar 
    34    8   32 1  
    35   14   33 1  
    36   14   34 1  
    37   15   35 1  
    38   17   36 1  
    39   18   37 1  
    40   19   38 1  
    41   20   39 1  
    42   21   40 1  
    43   23   41 1  
    44   27   42 1  
    45   27   43 1  
    46   29   44 1  
@<TRIPOS>SUBSTRUCTURE
     1 ANP         1

