1hnn_ligand

Created by X-TOOL on Fri Sep 26 17:34:19 2014
 27 28  0  0  0  0  0  0  0  0999 V2000
   28.3480   46.0370   16.7830  C 0  0  0  2  0  3
   27.8990   45.5320   15.5700  C 0  0  0  2  0  3
   27.8220   44.1470   15.3850  C 0  0  0  1  0  3
   28.1930   43.2860   16.4100  C 0  0  0  2  0  3
   27.2610   43.4900   13.8470  S 0  0  0  1  0  4
   28.6420   43.7900   17.6160  C 0  0  0  1  0  3
   28.7200   45.1740   17.8070  C 0  0  0  1  0  3
   27.4850   44.4300   12.7700  O 0  0  0  1  0  1
   25.8660   43.1330   13.8730  O 0  0  0  1  0  1
   28.1050   42.1870   13.5730  N 0  0  0  3  0  3
   28.9650   42.8430   18.7440  C 0  0  0  3  0  4
   29.2110   44.8480   20.1940  C 0  0  0  3  0  4
   29.4880   45.7050   18.9780  C 0  0  0  3  0  4
   29.7000   43.4830   19.8600  N 0  3  0  3  0  4
   28.4087   47.1090   16.9320  H 0  0  0  1  0  1
   27.6101   46.2060   14.7717  H 0  0  0  1  0  1
   28.1301   42.2138   16.2633  H 0  0  0  1  0  1
   27.9450   41.6530   12.7428  H 0  0  0  1  0  1
   28.8004   41.8945   14.2294  H 0  0  0  1  0  1
   29.5815   42.0239   18.3454  H 0  0  0  1  0  1
   28.0222   42.4347   19.1368  H 0  0  0  1  0  1
   28.1320   44.8250   20.4066  H 0  0  0  1  0  1
   29.7488   45.2422   21.0689  H 0  0  0  1  0  1
   29.1775   46.7405   19.1810  H 0  0  0  1  0  1
   30.5641   45.6826   18.7512  H 0  0  0  1  0  1
   30.6730   43.5473   19.6047  H 0  0  0  1  0  1
   29.6049   42.9020   20.6782  H 0  0  0  1  0  1
  1  2  4  0  0  1
  1  7  4  0  0  1
  2  3  4  0  0  1
  3  4  4  0  0  1
  3  5  1  0  0  2
  4  6  4  0  0  1
  5  8  2  0  0  2
  5  9  2  0  0  2
  5 10  1  0  0  2
  6  7  4  0  0  1
  6 11  1  0  0  1
  7 13  1  0  0  1
 11 14  1  0  0  1
 13 12  1  0  0  1
 12 14  1  0  0  1
  1 15  1  0  0  2
  2 16  1  0  0  2
  4 17  1  0  0  2
 10 18  1  0  0  2
 10 19  1  0  0  2
 11 20  1  0  0  2
 11 21  1  0  0  2
 12 22  1  0  0  2
 12 23  1  0  0  2
 13 24  1  0  0  2
 13 25  1  0  0  2
 14 26  1  0  0  2
 14 27  1  0  0  2
M  END
> <MOLECULAR_FORMULA>
C9H13N2O2S

> <MOLECULAR_WEIGHT>
213.2

> <NUM_HB_ATOMS>
4  

> <NUM_ROTOR>
1  

> <XLOGP2>
-0.05

$$$$
