### 
### Created by X-TOOL on Sun Nov 13 14:29:34 2016
### 

@<TRIPOS>MOLECULE
4qrh_ligand
   52    54     1     0     0
SMALL
GAST_HUCK


@<TRIPOS>ATOM
      1 PD         95.5810  -22.8190  105.1930 P.3       1 MOL         0.2069
      2 O1D        94.1430  -22.7800  104.7690 O.co2     1 MOL        -0.5891
      3 O2D        95.8020  -23.6700  106.4360 O.co2     1 MOL        -0.5891
      4 O3D        96.1390  -21.4290  105.3920 O.co2     1 MOL        -0.5891
      5 PG         94.5540  -28.8150  107.1540 P.3       1 MOL         0.1879
      6 O1G        94.6720  -30.3050  106.9530 O.co2     1 MOL        -0.6091
      7 O2G        94.3470  -28.5380  108.6290 O.co2     1 MOL        -0.6091
      8 O3G        95.8220  -28.1440  106.6840 O.co2     1 MOL        -0.6091
      9 PB         93.2980  -27.7280  104.8660 P.3       1 MOL         0.3553
     10 O1B        94.3050  -26.6020  104.8160 O.co2     1 MOL        -0.5652
     11 O2B        91.9090  -27.2710  104.4850 O.co2     1 MOL        -0.5652
     12 O3B        93.2710  -28.2820  106.3560 O.3       1 MOL        -0.1546
     13 O3A        93.7560  -28.9290  103.9310 O.3       1 MOL        -0.1171
     14 PA         93.9370  -29.0610  102.3510 P.3       1 MOL         0.3266
     15 O1A        92.6690  -28.8280  101.5830 O.co2     1 MOL        -0.5692
     16 O2A        94.4080  -30.4820  102.2500 O.co2     1 MOL        -0.5692
     17 O5'        95.0530  -28.1130  101.7330 O.3       1 MOL        -0.2441
     18 C5'        96.3220  -28.1470  102.3500 C.3       1 MOL         0.1135
     19 C4'        97.2160  -27.1040  101.8070 C.3       1 MOL         0.1244
     20 O4'        97.4640  -27.4160  100.3660 O.3       1 MOL        -0.3343
     21 C3'        96.6720  -25.7280  101.8780 C.3       1 MOL         0.1548
     22 O3'        97.7070  -24.9220  102.5000 O.3       1 MOL        -0.2374
     23 C2'        96.4260  -25.3050  100.4980 C.3       1 MOL         0.1461
     24 O2'        96.6250  -23.8760  100.2630 O.3       1 MOL        -0.3831
     25 C1'        97.3980  -26.0810   99.7030 C.3       1 MOL         0.2222
     26 N9         97.0400  -26.2450   98.3570 N.pl3     1 MOL        -0.0954
     27 C8         95.8310  -26.5010   97.8410 C.2       1 MOL         0.1855
     28 N7         95.9020  -26.5930   96.5140 N.2       1 MOL        -0.1929
     29 C5         97.1660  -26.4010   96.1290 C.2       1 MOL         0.2558
     30 C6         97.8560  -26.3740   94.9090 C.2       1 MOL         0.2628
     31 O6         97.3170  -26.5260   93.8230 O.2       1 MOL        -0.3594
     32 N1         99.1690  -26.1590   94.9180 N.am      1 MOL        -0.2478
     33 C2         99.8520  -25.9620   96.0470 C.cat     1 MOL         0.2041
     34 N2        101.2310  -25.7150   95.9840 N.pl3     1 MOL        -0.3327
     35 N3         99.2330  -25.9700   97.2480 N.pl3     1 MOL        -0.1901
     36 C4         97.9010  -26.1930   97.3070 C.2       1 MOL         0.3268
     37 PC         97.5660  -24.5680  104.0550 P.3       1 MOL         0.3279
     38 O1C        98.8540  -23.9540  104.4640 O.co2     1 MOL        -0.5556
     39 O2C        97.1680  -25.8020  104.8220 O.co2     1 MOL        -0.5556
     40 O3C        96.3860  -23.5000  103.9980 O.3       1 MOL        -0.1548
     41 H1         96.7772  -29.1333  102.1771 H         1 MOL         0.0648
     42 H2         96.1984  -27.9845  103.4309 H         1 MOL         0.0648
     43 H3         98.1639  -27.1338  102.3643 H         1 MOL         0.0655
     44 H4         95.7430  -25.6884  102.4656 H         1 MOL         0.0712
     45 H5         95.3969  -25.5661  100.2104 H         1 MOL         0.0682
     46 H6         96.0333  -23.3798  100.8163 H         1 MOL         0.2102
     47 H7         98.3793  -25.5858   99.7444 H         1 MOL         0.1022
     48 H8         94.9186  -26.6175   98.4240 H         1 MOL         0.1823
     49 H9         99.6613  -26.1446   94.0477 H         1 MOL         0.1819
     50 H10       101.7668  -25.5617   96.8502 H         1 MOL         0.1774
     51 H11       101.7080  -25.6869   95.0715 H         1 MOL         0.1774
     52 H12        99.7713  -25.8076   98.1110 H         1 MOL         0.2519
@<TRIPOS>BOND
     1    1    2 ar 
     2    1    3 ar 
     3    1    4 ar 
     4   40    1 1  
     5    5    6 ar 
     6    5    7 ar 
     7    5    8 ar 
     8   12    5 1  
     9    9   10 ar 
    10    9   11 ar 
    11    9   12 1  
    12   13    9 1  
    13   14   13 1  
    14   14   15 ar 
    15   14   16 ar 
    16   17   14 1  
    17   18   17 1  
    18   19   18 1  
    19   19   20 1  
    20   21   19 1  
    21   25   20 1  
    22   22   21 1  
    23   21   23 1  
    24   37   22 1  
    25   23   24 1  
    26   23   25 1  
    27   25   26 1  
    28   26   27 1  
    29   26   36 1  
    30   27   28 2  
    31   29   28 1  
    32   29   30 1  
    33   36   29 2  
    34   30   31 2  
    35   30   32 am 
    36   33   32 ar 
    37   33   34 ar 
    38   35   33 ar 
    39   36   35 1  
    40   37   38 ar 
    41   37   39 ar 
    42   37   40 1  
    43   18   41 1  
    44   18   42 1  
    45   19   43 1  
    46   21   44 1  
    47   23   45 1  
    48   24   46 1  
    49   25   47 1  
    50   27   48 1  
    51   32   49 1  
    52   34   50 1  
    53   34   51 1  
    54   35   52 1  
@<TRIPOS>SUBSTRUCTURE
     1 MOL         1

