### 
### Created by X-TOOL on Fri Sep 26 17:34:10 2014
### 

@<TRIPOS>MOLECULE
2tmn_ligand
   26    25     1     0     0
SMALL
GAST_HUCK


@<TRIPOS>ATOM
      1 P          51.7110   18.9570   -6.2940 P.3       1 MOL         0.1461
      2 O1P        51.6950   20.5290   -6.1650 O.co2     1 MOL        -0.5493
      3 O2P        53.1510   18.5470   -6.8250 O.co2     1 MOL        -0.5493
      4 O3P        50.5590   18.3330   -7.0080 O.co2     1 MOL        -0.5493
      5 N          51.6470   18.3580   -4.5460 N.am      1 MOL        -0.2721
      6 CA         52.8450   18.2740   -3.7280 C.3       1 MOL         0.1211
      7 C          53.6540   17.0160   -4.0170 C.2       1 MOL         0.1950
      8 O          54.8770   17.0990   -3.8570 O.2       1 MOL        -0.3952
      9 CB         52.5110   18.2580   -2.2300 C.3       1 MOL        -0.0139
     10 CG         53.6580   18.2450   -1.2680 C.3       1 MOL        -0.0429
     11 CD1        54.5690   19.4580   -1.5220 C.3       1 MOL        -0.0625
     12 CD2        52.8570   18.1860    0.0450 C.3       1 MOL        -0.0625
     13 N          53.0330   15.9300   -4.3380 N.am      1 MOL        -0.2993
     14 H1         50.7680   18.0857   -4.1546 H         1 MOL         0.1647
     15 H2         53.4668   19.1547   -3.9464 H         1 MOL         0.0751
     16 H3         51.9078   17.3588   -2.0361 H         1 MOL         0.0311
     17 H4         51.9114   19.1550   -2.0161 H         1 MOL         0.0311
     18 H5         54.2698   17.3371   -1.3744 H         1 MOL         0.0298
     19 H6         55.4087   19.4411   -0.8116 H         1 MOL         0.0232
     20 H7         53.9922   20.3847   -1.3858 H         1 MOL         0.0232
     21 H8         54.9577   19.4157   -2.5501 H         1 MOL         0.0232
     22 H9         52.2611   17.2617    0.0697 H         1 MOL         0.0232
     23 H10        52.1867   19.0561    0.1051 H         1 MOL         0.0232
     24 H11        53.5507   18.1979    0.8986 H         1 MOL         0.0232
     25 H12        53.5506   15.0963   -4.5305 H         1 MOL         0.1815
     26 H13        52.0346   15.9228   -4.3940 H         1 MOL         0.1815
@<TRIPOS>BOND
     1    5    6 1  
     2    6    9 1  
     3    6    7 1  
     4    7    8 2  
     5    9   10 1  
     6   10   11 1  
     7   10   12 1  
     8    1    2 ar 
     9    1    3 ar 
    10    1    4 ar 
    11    1    5 am 
    12    7   13 am 
    13    5   14 1  
    14    6   15 1  
    15    9   16 1  
    16    9   17 1  
    17   10   18 1  
    18   11   19 1  
    19   11   20 1  
    20   11   21 1  
    21   12   22 1  
    22   12   23 1  
    23   12   24 1  
    24   13   25 1  
    25   13   26 1  
@<TRIPOS>SUBSTRUCTURE
     1 MOL         1

