### 
### Created by X-TOOL on Fri Sep 26 17:34:54 2014
### 

@<TRIPOS>MOLECULE
4b1j_ligand
   58    61     1     0     0
SMALL
GAST_HUCK


@<TRIPOS>ATOM
      1 N1         23.1950   -4.3180   -1.2490 N.ar      1 A1R        -0.2698
      2 C2         24.0350   -5.2700   -0.8260 C.ar      1 A1R         0.0533
      3 N3         25.3000   -5.1420   -0.4210 N.ar      1 A1R        -0.2714
      4 C4         25.6960   -3.8670   -0.4600 C.ar      1 A1R         0.1613
      5 C5         24.9440   -2.7800   -0.8690 C.ar      1 A1R         0.1045
      6 C6         23.6210   -3.0390   -1.2910 C.ar      1 A1R         0.1298
      7 N6         22.7710   -2.1070   -1.7310 N.pl3     1 A1R        -0.3152
      8 N7         25.6850   -1.6140   -0.7810 N.2       1 A1R        -0.2958
      9 C8         26.8290   -2.0160   -0.3060 C.2       1 A1R         0.1123
     10 N9         26.9140   -3.3640   -0.0980 N.pl3     1 A1R        -0.1919
     11 C1'        28.0630   -4.1370    0.3870 C.3       1 A1R         0.2010
     12 C2'        29.4320   -3.6500   -0.1100 C.3       1 A1R         0.1385
     13 O2'        30.2510   -4.7900   -0.3840 O.3       1 A1R        -0.3836
     14 C3'        29.9360   -2.8660    1.0910 C.3       1 A1R         0.1149
     15 O3'        31.3510   -2.8270    1.1480 O.3       1 A1R        -0.3864
     16 O4'        28.0760   -4.0890    1.8020 O.3       1 A1R        -0.3364
     17 C4'        29.3830   -3.6870    2.2560 C.3       1 A1R         0.1189
     18 C5'        29.2760   -2.9830    3.5930 C.3       1 A1R         0.1128
     19 O5'        28.6440   -1.7150    3.4130 O.3       1 A1R        -0.2476
     20 PA         28.9310   -0.5290    4.3980 P.3       1 A1R         0.2972
     21 O1A        28.0590    0.6020    4.0480 O.co2     1 A1R        -0.6127
     22 O2A        30.4070   -0.2020    4.3390 O.co2     1 A1R        -0.6127
     23 O3A        28.6190   -1.1950    5.8110 O.3       1 A1R        -0.1319
     24 PB         29.4190   -1.2670    7.1970 P.3       1 A1R         0.2973
     25 O1B        28.5270   -1.9880    8.1810 O.co2     1 A1R        -0.6127
     26 O2B        30.7880   -1.7960    6.9840 O.co2     1 A1R        -0.6127
     27 O5N        29.5390    0.2530    7.5920 O.3       1 A1R        -0.2446
     28 C5N        28.6190    0.8370    8.5190 C.3       1 A1R         0.1289
     29 N4N        28.7780    2.9860    7.3040 N.4       1 A1R         0.2349
     30 C1N        27.5210    3.7570    7.3000 C.3       1 A1R        -0.0039
     31 O2N        25.9760    4.4400    8.9890 O.3       1 A1R        -0.3837
     32 C2N        26.8120    3.3820    8.5870 C.3       1 A1R         0.1258
     33 O3N        28.5760    4.2600   10.0160 O.3       1 A1R        -0.3833
     34 C3N        27.9580    3.1000    9.5250 C.3       1 A1R         0.1307
     35 C4N        28.9130    2.3230    8.6140 C.3       1 A1R         0.0357
     36 H1         23.6353   -6.2775   -0.8103 H         1 A1R         0.0996
     37 H2         23.0656   -1.1210   -1.7753 H         1 A1R         0.1820
     38 H3         21.8210   -2.3744   -2.0259 H         1 A1R         0.1820
     39 H4         27.6505   -1.3339   -0.0921 H         1 A1R         0.1349
     40 H5         27.9320   -5.1787    0.0588 H         1 A1R         0.0996
     41 H6         29.3505   -3.0147   -1.0043 H         1 A1R         0.0676
     42 H7         31.1016   -4.5006   -0.6926 H         1 A1R         0.2101
     43 H8         29.5383   -1.8404    1.0927 H         1 A1R         0.0648
     44 H9         31.6889   -3.7127    1.2098 H         1 A1R         0.2100
     45 H10        30.0214   -4.5714    2.3984 H         1 A1R         0.0651
     46 H11        30.2825   -2.8351    4.0113 H         1 A1R         0.0648
     47 H12        28.6783   -3.5960    4.2836 H         1 A1R         0.0648
     48 H13        28.7411    0.3703    9.5076 H         1 A1R         0.0679
     49 H14        27.5885    0.6841    8.1660 H         1 A1R         0.0679
     50 H15        29.5583    3.6063    7.1544 H         1 A1R         0.2019
     51 H16        28.7546    2.2929    6.5725 H         1 A1R         0.2019
     52 H17        26.9062    3.4855    6.4292 H         1 A1R         0.0840
     53 H18        27.7320    4.8363    7.2778 H         1 A1R         0.0840
     54 H19        26.4999    5.2195    9.1315 H         1 A1R         0.2101
     55 H20        26.2002    2.4775    8.4545 H         1 A1R         0.0675
     56 H21        27.9389    4.7797   10.4919 H         1 A1R         0.2102
     57 H22        27.6250    2.4850   10.3741 H         1 A1R         0.0679
     58 H23        29.9418    2.4385    8.9858 H         1 A1R         0.0904
@<TRIPOS>BOND
     1    2    1 ar 
     2    6    1 ar 
     3    3    2 ar 
     4    4    3 ar 
     5    4    5 ar 
     6   10    4 1  
     7    5    6 ar 
     8    8    5 1  
     9    6    7 1  
    10    9    8 2  
    11   10    9 1  
    12   11   10 1  
    13   11   12 1  
    14   16   11 1  
    15   12   13 1  
    16   14   12 1  
    17   14   15 1  
    18   17   14 1  
    19   17   16 1  
    20   18   17 1  
    21   19   18 1  
    22   20   19 1  
    23   20   21 ar 
    24   20   22 ar 
    25   23   20 1  
    26   24   23 1  
    27   24   25 ar 
    28   24   26 ar 
    29   27   24 1  
    30   28   27 1  
    31   35   28 1  
    32   29   30 1  
    33   29   35 1  
    34   30   32 1  
    35   32   31 1  
    36   32   34 1  
    37   34   33 1  
    38   34   35 1  
    39    2   36 1  
    40    7   37 1  
    41    7   38 1  
    42    9   39 1  
    43   11   40 1  
    44   12   41 1  
    45   13   42 1  
    46   14   43 1  
    47   15   44 1  
    48   17   45 1  
    49   18   46 1  
    50   18   47 1  
    51   28   48 1  
    52   28   49 1  
    53   29   50 1  
    54   29   51 1  
    55   30   52 1  
    56   30   53 1  
    57   31   54 1  
    58   32   55 1  
    59   33   56 1  
    60   34   57 1  
    61   35   58 1  
@<TRIPOS>SUBSTRUCTURE
     1 A1R         1

