### 
### Created by X-TOOL on Fri Sep 26 17:34:27 2014
### 

@<TRIPOS>MOLECULE
1sl3_ligand
   54    57     1     0     0
SMALL
GAST_HUCK


@<TRIPOS>ATOM
      1 C8         19.8850  -14.4930   26.0920 C.ar      1 MOL         0.1066
      2 C2         19.8090  -15.8920   25.7160 C.ar      1 MOL         0.2274
      3 N1         20.8840  -16.4990   25.0550 N.ar      1 MOL        -0.0407
      4 C4         22.0630  -15.8640   24.6980 C.ar      1 MOL         0.1702
      5 C5         22.1840  -14.4770   25.0450 C.ar      1 MOL         0.0905
      6 C6         21.0990  -13.8170   25.7440 C.ar      1 MOL         0.0907
      7 C11        18.5420  -16.7220   25.9220 C.3       1 MOL         0.3002
      8 C1         17.9270  -17.1560   24.6050 C.3       1 MOL         0.0793
      9 N18        17.2390  -16.0490   23.9180 N.pl3     1 MOL        -0.2967
     10 C21        17.9430  -15.3750   22.8840 C.2       1 MOL         0.1882
     11 C22        17.4220  -14.1380   22.2760 C.2       1 MOL         0.2744
     12 N23        18.1450  -13.5090   21.2900 N.am      1 MOL        -0.1835
     13 C24        19.4450  -13.9240   20.8140 C.2       1 MOL         0.1556
     14 C25        19.9520  -15.0780   21.4460 C.2       1 MOL         0.0024
     15 N3         19.2190  -15.7850   22.3930 N.2       1 MOL        -0.3103
     16 O28        16.3470  -13.6760   22.6470 O.2       1 MOL        -0.3904
     17 CL2        20.2940  -13.0680   19.6270 Cl        1 MOL        -0.0299
     18 C33        17.6120  -12.2700   20.6890 C.3       1 MOL         0.1518
     19 C34        16.1360  -12.4120   20.3520 C.2       1 MOL         0.2092
     20 N37        15.3990  -11.3120   20.5550 N.am      1 MOL        -0.2741
     21 O38        15.6960  -13.4630   19.8970 O.2       1 MOL        -0.3938
     22 C39        13.9620  -11.3520   20.2480 C.3       1 MOL         0.0658
     23 C40        13.1050  -11.3550   21.5070 C.ar      1 MOL         0.0191
     24 C43        13.0960  -10.1610   22.3090 C.ar      1 MOL        -0.0472
     25 C44        12.2840  -10.1950   23.4950 C.ar      1 MOL         0.0274
     26 C45        11.5040  -11.3370   23.8990 C.ar      1 MOL        -0.0579
     27 C50        12.3340  -12.4970   21.9000 C.ar      1 MOL         0.1311
     28 C47        11.5100  -12.5220   23.0980 C.ar      1 MOL        -0.0287
     29 F1         18.8320  -17.8780   26.5420 F         1 MOL        -0.2346
     30 F2         17.6180  -16.0780   26.6550 F         1 MOL        -0.2346
     31 CL1        12.2380   -8.7570   24.4850 Cl        1 MOL        -0.0782
     32 O1         20.7720  -17.8030   24.7230 O.2       1 MOL        -0.1206
     33 N14        13.2350  -15.7030   20.5450 N.2       1 MOL        -0.2078
     34 N13        12.3840  -15.2320   19.8030 N.2       1 MOL        -0.1386
     35 N12        11.9670  -14.1020   20.2010 N.2       1 MOL        -0.0500
     36 N11        12.4750  -13.6680   21.2150 N.pl3     1 MOL        -0.0983
     37 C46        13.3510  -14.7260   21.5840 C.2       1 MOL         0.1657
     38 H1         19.0731  -13.9901   26.6048 H         1 MOL         0.1883
     39 H2         22.8568  -16.3906   24.1807 H         1 MOL         0.1770
     40 H3         23.0810  -13.9262   24.7861 H         1 MOL         0.1184
     41 H4         21.2105  -12.7729   26.0134 H         1 MOL         0.1434
     42 H5         17.1994  -17.9573   24.8012 H         1 MOL         0.0504
     43 H6         18.7247  -17.5372   23.9506 H         1 MOL         0.0504
     44 H7         16.2813  -15.7733   24.1781 H         1 MOL         0.1840
     45 H8         20.9498  -15.4269   21.1841 H         1 MOL         0.0435
     46 H9         18.1706  -12.0493   19.7675 H         1 MOL         0.0868
     47 H10        17.7390  -11.4421   21.4020 H         1 MOL         0.0868
     48 H11        15.8196  -10.4770   20.9097 H         1 MOL         0.1877
     49 H12        13.7481  -12.2641   19.6716 H         1 MOL         0.0673
     50 H13        13.7036  -10.4686   19.6457 H         1 MOL         0.0673
     51 H14        13.6701   -9.2835   22.0342 H         1 MOL         0.0546
     52 H15        10.9141  -11.2983   24.8076 H         1 MOL         0.0551
     53 H16        10.9290  -13.3956   23.3705 H         1 MOL         0.0575
     54 H17        13.9790  -14.7810   22.4720 H         1 MOL         0.1420
@<TRIPOS>BOND
     1    2    1 ar 
     2    1    6 ar 
     3    2    3 ar 
     4    7    2 1  
     5    3    4 ar 
     6    3   32 2  
     7    4    5 ar 
     8    6    5 ar 
     9    8    7 1  
    10    7   29 1  
    11    7   30 1  
    12    9    8 1  
    13   10    9 1  
    14   11   10 1  
    15   10   15 2  
    16   12   11 am 
    17   11   16 2  
    18   12   13 am 
    19   18   12 1  
    20   13   14 2  
    21   13   17 1  
    22   14   15 1  
    23   19   18 1  
    24   20   19 am 
    25   19   21 2  
    26   22   20 1  
    27   23   22 1  
    28   23   24 ar 
    29   27   23 ar 
    30   24   25 ar 
    31   26   25 ar 
    32   25   31 1  
    33   28   26 ar 
    34   27   28 ar 
    35   36   27 1  
    36   34   33 1  
    37   33   37 2  
    38   35   34 2  
    39   35   36 1  
    40   36   37 1  
    41    1   38 1  
    42    4   39 1  
    43    5   40 1  
    44    6   41 1  
    45    8   42 1  
    46    8   43 1  
    47    9   44 1  
    48   14   45 1  
    49   18   46 1  
    50   18   47 1  
    51   20   48 1  
    52   22   49 1  
    53   22   50 1  
    54   24   51 1  
    55   26   52 1  
    56   28   53 1  
    57   37   54 1  
@<TRIPOS>SUBSTRUCTURE
     1 MOL         1

