### 
### Created by X-TOOL on Fri Sep 26 17:34:10 2014
### 

@<TRIPOS>MOLECULE
4tim_ligand
   15    14     1     0     0
SMALL
GAST_HUCK


@<TRIPOS>ATOM
      1 C1         46.2150   15.5080   -8.8920 C.2       1 MOL         0.0708
      2 C2         46.4340   15.5020  -10.4190 C.3       1 MOL         0.1639
      3 C3         46.7110   14.0360  -10.7190 C.3       1 MOL         0.0866
      4 P          47.6070   16.8890  -12.4740 P.3       1 MOL         0.2037
      5 O11        45.0640   15.2040   -8.4780 O.co2     1 MOL        -0.5660
      6 O12        47.2080   15.7070   -8.1290 O.co2     1 MOL        -0.5660
      7 O31        46.8930   13.2930   -9.5050 O.3       1 MOL        -0.3904
      8 O1P        47.4740   16.4110  -10.8800 O.3       1 MOL        -0.2567
      9 O2P        46.7530   15.8980  -13.2700 O.co2     1 MOL        -0.5536
     10 O3P        49.0950   16.8860  -12.8250 O.co2     1 MOL        -0.5536
     11 O4P        47.0360   18.2980  -12.6070 O.co2     1 MOL        -0.5536
     12 H1         45.5009   15.8026  -10.9179 H         1 MOL         0.0843
     13 H2         47.6230   13.9588  -11.3292 H         1 MOL         0.0605
     14 H3         45.8607   13.6148  -11.2755 H         1 MOL         0.0605
     15 H4         46.1060   13.3546   -8.9763 H         1 MOL         0.2097
@<TRIPOS>BOND
     1    2    1 1  
     2    1    5 ar 
     3    1    6 ar 
     4    2    3 1  
     5    8    2 1  
     6    3    7 1  
     7    4   11 ar 
     8    4   10 ar 
     9    4    9 ar 
    10    8    4 1  
    11    2   12 1  
    12    3   13 1  
    13    3   14 1  
    14    7   15 1  
@<TRIPOS>SUBSTRUCTURE
     1 MOL         1

