### 
### Created by X-TOOL on Fri Sep 26 17:34:19 2014
### 

@<TRIPOS>MOLECULE
1kv5_ligand
   11    10     1     0     0
SMALL
GAST_HUCK


@<TRIPOS>ATOM
      1 P         -10.7190   -6.8840   49.1150 P.3       1 PGA         0.2032
      2 O1P        -9.3330   -6.9950   48.2510 O.3       1 PGA        -0.2622
      3 O2P       -10.5790   -7.9230   50.1910 O.co2     1 PGA        -0.5536
      4 O3P       -11.8880   -7.0630   48.1350 O.co2     1 PGA        -0.5536
      5 O4P       -10.8080   -5.4900   49.7160 O.co2     1 PGA        -0.5536
      6 C2         -8.6610   -8.2300   48.2170 C.3       1 PGA         0.1305
      7 C1         -7.3980   -7.9930   47.4570 C.2       1 PGA         0.0653
      8 O1         -6.2480   -8.6200   47.8500 O.co2     1 PGA        -0.5663
      9 O2         -7.4160   -7.1420   46.4690 O.co2     1 PGA        -0.5663
     10 H1         -9.2768   -8.9859   47.7078 H         1 PGA         0.0783
     11 H2         -8.4340   -8.5694   49.2384 H         1 PGA         0.0783
@<TRIPOS>BOND
     1    1    2 1  
     2    1    3 ar 
     3    1    4 ar 
     4    1    5 ar 
     5    2    6 1  
     6    6    7 1  
     7    7    8 ar 
     8    7    9 ar 
     9    6   10 1  
    10    6   11 1  
@<TRIPOS>SUBSTRUCTURE
     1 PGA         1

