### 
### Created by X-TOOL on Fri Sep 26 17:34:10 2014
### 

@<TRIPOS>MOLECULE
1trd_ligand
   14    13     1     0     0
SMALL
GAST_HUCK


@<TRIPOS>ATOM
      1 C1          5.5290  -23.8010  -16.5380 C.2       1 PGH         0.2297
      2 C2          6.6220  -23.2920  -17.4190 C.3       1 PGH         0.1686
      3 N3          4.3230  -23.2400  -16.9160 N.am      1 PGH        -0.1620
      4 O4          3.3800  -23.2260  -16.0600 O.3       1 PGH        -0.2717
      5 O5          5.7270  -24.6640  -15.6010 O.2       1 PGH        -0.3940
      6 O6          7.9420  -23.3230  -16.8780 O.3       1 PGH        -0.2560
      7 O7         10.4930  -22.8840  -16.8370 O.co2     1 PGH        -0.5536
      8 O8          9.5040  -24.7050  -18.2960 O.co2     1 PGH        -0.5536
      9 O9          9.1450  -22.2780  -18.8980 O.co2     1 PGH        -0.5536
     10 P10         9.2890  -23.2910  -17.7190 P.3       1 PGH         0.2041
     11 H1          6.3887  -22.2471  -17.6713 H         1 PGH         0.0857
     12 H2          6.6223  -23.8994  -18.3361 H         1 PGH         0.0857
     13 H3          4.1954  -22.8579  -17.8313 H         1 PGH         0.2217
     14 H4          2.6127  -22.8167  -16.4425 H         1 PGH         0.2490
@<TRIPOS>BOND
     1    1    5 2  
     2    1    3 am 
     3    1    2 1  
     4    2    6 1  
     5    6   10 1  
     6   10    7 ar 
     7   10    8 ar 
     8   10    9 ar 
     9    3    4 1  
    10    2   11 1  
    11    2   12 1  
    12    3   13 1  
    13    4   14 1  
@<TRIPOS>SUBSTRUCTURE
     1 PGH         1

