### 
### Created by X-TOOL on Fri Sep 26 17:34:23 2014
### 

@<TRIPOS>MOLECULE
1q54_ligand
   26    25     1     0     0
SMALL
GAST_HUCK


@<TRIPOS>ATOM
      1 O1          9.3570   10.2090   13.0290 O.3       1 BHI        -0.3879
      2 O2         11.8560    2.8650   10.9670 O.co2     1 BHI        -0.5891
      3 O3          9.8540    1.6410   10.8650 O.co2     1 BHI        -0.5891
      4 O4         10.9590    2.0290   12.9380 O.co2     1 BHI        -0.5891
      5 P5         10.6890    2.6520   11.6000 P.3       1 BHI         0.2069
      6 O6          9.9440    3.9800   11.7780 O.3       1 BHI        -0.1548
      7 O7         11.0340    6.1220   11.5380 O.co2     1 BHI        -0.5556
      8 O8         11.7170    4.5940   13.2600 O.co2     1 BHI        -0.5556
      9 P9         10.6270    5.2160   12.4240 P.3       1 BHI         0.3275
     10 C10        10.3350    9.4300   15.3610 C.3       1 BHI         0.0320
     11 C11        11.0890    8.2680   13.3380 C.3       1 BHI        -0.0352
     12 C12         8.8750    6.8560   13.0410 C.3       1 BHI         0.0871
     13 C13         8.7600    7.8970   14.1700 C.3       1 BHI         0.0052
     14 C14         9.8540    8.9860   13.9510 C.3       1 BHI         0.0753
     15 O15         9.6200    5.7080   13.4550 O.3       1 BHI        -0.2462
     16 BR          8.7290    9.3740   16.2740 Br        1 BHI        -0.0888
     17 H1         10.0625   10.8377   12.9315 H         1 BHI         0.2102
     18 H2         11.0697    8.7280   15.7823 H         1 BHI         0.0410
     19 H3         10.7624   10.4435   15.3469 H         1 BHI         0.0410
     20 H4         11.3965    7.4416   13.9957 H         1 BHI         0.0257
     21 H5         11.9175    8.9846   13.2379 H         1 BHI         0.0257
     22 H6         10.8269    7.8696   12.3467 H         1 BHI         0.0257
     23 H7          9.3807    7.3178   12.1802 H         1 BHI         0.0622
     24 H8          7.8645    6.5376   12.7452 H         1 BHI         0.0622
     25 H9          8.9130    7.4076   15.1432 H         1 BHI         0.0319
     26 H10         7.7634    8.3620   14.1461 H         1 BHI         0.0319
@<TRIPOS>BOND
     1   14    1 1  
     2    5    2 ar 
     3    6    5 1  
     4    9    6 1  
     5   13   12 1  
     6   14   13 1  
     7   12   15 1  
     8   10   16 1  
     9   15    9 1  
    10   14   11 1  
    11   14   10 1  
    12    9    8 ar 
    13    9    7 ar 
    14    5    4 ar 
    15    5    3 ar 
    16    1   17 1  
    17   10   18 1  
    18   10   19 1  
    19   11   20 1  
    20   11   21 1  
    21   11   22 1  
    22   12   23 1  
    23   12   24 1  
    24   13   25 1  
    25   13   26 1  
@<TRIPOS>SUBSTRUCTURE
     1 BHI         1

