### 
### Created by X-TOOL on Fri Sep 26 17:34:29 2014
### 

@<TRIPOS>MOLECULE
1t31_ligand
   82    88     1     0     0
SMALL
GAST_HUCK


@<TRIPOS>ATOM
      1 O6         -1.7640   31.3350   23.9320 O.2       1 OHH        -0.3847
      2 P1         -3.3130   41.1690   21.4410 P.3       1 OHH         0.0920
      3 O1         -2.0860   41.9460   21.1950 O.co2     1 OHH        -0.5590
      4 O3         -4.2890   41.0870   20.2730 O.co2     1 OHH        -0.5590
      5 O2         -4.3500   41.7230   22.4230 O.co2     1 OHH        -0.5590
      6 C9         -2.9320   39.5210   21.8550 C.3       1 OHH         0.1397
      7 O4         -2.9560   39.1160   24.2720 O.2       1 OHH        -0.3728
      8 C10        -2.3520   39.3740   23.2750 C.2       1 OHH         0.1665
      9 C17         2.3640   40.1760   21.0080 C.ar      1 OHH        -0.0499
     10 C16         3.8200   40.1850   21.1240 C.ar      1 OHH        -0.0581
     11 C15         4.4960   39.8120   22.4010 C.ar      1 OHH        -0.0581
     12 C14         3.7350   39.4290   23.5770 C.ar      1 OHH        -0.0499
     13 C4B         2.2560   39.4040   23.5150 C.ar      1 OHH        -0.0087
     14 C8B         1.5370   39.7920   22.1730 C.ar      1 OHH        -0.0085
     15 C18         0.0900   39.7690   22.1240 C.ar      1 OHH        -0.0307
     16 C11        -0.7500   39.4000   23.2900 C.ar      1 OHH         0.0544
     17 C12         0.0220   39.0200   24.6090 C.ar      1 OHH         0.0669
     18 C13         1.4490   39.0360   24.6640 C.ar      1 OHH        -0.0298
     19 O5         -0.7760   39.4550   26.7870 O.2       1 OHH        -0.3837
     20 C19        -0.6960   38.6020   25.9180 C.2       1 OHH         0.2097
     21 C1         -6.4190   36.6120   21.5790 C.ar      1 OHH        -0.0627
     22 C2         -6.5570   37.8010   22.3720 C.ar      1 OHH        -0.0701
     23 C3         -5.4530   38.7280   22.4620 C.ar      1 OHH        -0.0567
     24 C4         -4.1460   38.5610   21.7900 C.ar      1 OHH         0.0039
     25 C4A        -3.9600   37.3090   20.9430 C.ar      1 OHH        -0.0084
     26 C8A        -5.1740   36.3100   20.8530 C.ar      1 OHH        -0.0238
     27 C8         -5.0550   35.0740   20.0380 C.ar      1 OHH        -0.0568
     28 C7         -3.8450   34.7600   19.3260 C.ar      1 OHH        -0.0629
     29 C6         -2.6720   35.6700   19.3850 C.ar      1 OHH        -0.0625
     30 C5         -2.7350   36.9050   20.1700 C.ar      1 OHH        -0.0546
     31 N1         -1.2210   37.2420   26.0070 N.am      1 OHH        -0.2721
     32 C20        -1.9190   36.9000   27.3000 C.3       1 OHH         0.0224
     33 C24        -0.3070   33.8180   24.2730 C.3       1 OHH         0.0355
     34 N2         -1.6750   33.6690   23.6100 N.am      1 OHH        -0.2723
     35 C23        -2.2300   34.9570   23.1190 C.3       1 OHH         0.0355
     36 C22        -2.4790   35.9600   24.2500 C.3       1 OHH        -0.0092
     37 C21        -1.1100   36.2310   24.9270 C.3       1 OHH         0.0479
     38 C25        -0.4050   34.8710   25.4300 C.3       1 OHH        -0.0092
     39 C26        -2.2910   32.3560   23.5110 C.2       1 OHH         0.2072
     40 C29        -5.1450   31.3170   20.9010 C.ar      1 OHH        -0.0509
     41 C28        -3.8670   31.4490   21.5610 C.ar      1 OHH        -0.0432
     42 C27        -3.6940   32.2360   22.8380 C.ar      1 OHH         0.0505
     43 C34        -4.9050   32.8850   23.4090 C.ar      1 OHH        -0.0329
     44 C8C        -6.2190   32.7900   22.7900 C.ar      1 OHH        -0.0116
     45 C4C        -6.3570   31.9620   21.4620 C.ar      1 OHH        -0.0152
     46 C30        -7.7030   31.8690   20.8280 C.ar      1 OHH        -0.0524
     47 C31        -8.8580   32.5360   21.4370 C.ar      1 OHH        -0.0598
     48 C32        -8.7270   33.3190   22.6980 C.ar      1 OHH        -0.0596
     49 C33        -7.4320   33.4430   23.3610 C.ar      1 OHH        -0.0517
     50 H1         -2.1782   39.1749   21.1325 H         1 OHH         0.0881
     51 H2          1.8912   40.4497   20.0717 H         1 OHH         0.0640
     52 H3          4.4204   40.4678   20.2669 H         1 OHH         0.0634
     53 H4          5.5787   39.8273   22.4519 H         1 OHH         0.0634
     54 H5          4.2468   39.1630   24.4948 H         1 OHH         0.0640
     55 H6         -0.4012   40.0330   21.1944 H         1 OHH         0.0703
     56 H7          1.9434   38.7657   25.5900 H         1 OHH         0.0699
     57 H8         -7.2510   35.9203   21.5132 H         1 OHH         0.0546
     58 H9         -7.4827   38.0014   22.8992 H         1 OHH         0.0596
     59 H10        -5.5932   39.6150   23.0692 H         1 OHH         0.0536
     60 H11        -5.8974   34.3944   19.9784 H         1 OHH         0.0609
     61 H12        -3.7885   33.8497   18.7402 H         1 OHH         0.0616
     62 H13        -1.7662   35.4190   18.8451 H         1 OHH         0.0602
     63 H14        -1.8658   37.5522   20.1947 H         1 OHH         0.0628
     64 H15        -1.8984   37.7724   27.9696 H         1 OHH         0.0486
     65 H16        -1.4047   36.0556   27.7821 H         1 OHH         0.0486
     66 H17        -2.9628   36.6227   27.0911 H         1 OHH         0.0486
     67 H18         0.4275   34.1578   23.5280 H         1 OHH         0.0522
     68 H19         0.0097   32.8483   24.6844 H         1 OHH         0.0522
     69 H20        -3.1837   34.7579   22.6083 H         1 OHH         0.0522
     70 H21        -1.5178   35.3989   22.4066 H         1 OHH         0.0522
     71 H22        -3.1845   35.5377   24.9807 H         1 OHH         0.0307
     72 H23        -2.8899   36.8951   23.8417 H         1 OHH         0.0307
     73 H24        -0.4534   36.6611   24.1564 H         1 OHH         0.0559
     74 H25         0.6083   35.1044   25.7888 H         1 OHH         0.0307
     75 H26        -0.9964   34.4444   26.2535 H         1 OHH         0.0307
     76 H27        -5.2191   30.7405   19.9860 H         1 OHH         0.0627
     77 H28        -3.0008   30.9656   21.1238 H         1 OHH         0.0652
     78 H29        -4.8043   33.4536   24.3264 H         1 OHH         0.0695
     79 H30        -7.8286   31.3047   19.9110 H         1 OHH         0.0626
     80 H31        -9.8281   32.4578   20.9596 H         1 OHH         0.0630
     81 H32        -9.5991   33.7999   23.1261 H         1 OHH         0.0622
     82 H33        -7.3515   34.0157   24.2778 H         1 OHH         0.0636
@<TRIPOS>BOND
     1   39    1 2  
     2    2    3 ar 
     3    2    4 ar 
     4    2    5 ar 
     5    6    2 1  
     6    8    6 1  
     7    6   24 1  
     8    8    7 2  
     9   16    8 1  
    10    9   10 ar 
    11   14    9 ar 
    12   11   10 ar 
    13   12   11 ar 
    14   13   12 ar 
    15   13   14 ar 
    16   18   13 ar 
    17   15   14 ar 
    18   16   15 ar 
    19   17   16 ar 
    20   17   18 ar 
    21   20   17 1  
    22   20   19 2  
    23   31   20 am 
    24   22   21 ar 
    25   26   21 ar 
    26   23   22 ar 
    27   24   23 ar 
    28   24   25 ar 
    29   25   26 ar 
    30   25   30 ar 
    31   26   27 ar 
    32   27   28 ar 
    33   29   28 ar 
    34   30   29 ar 
    35   31   32 1  
    36   37   31 1  
    37   34   33 1  
    38   33   38 1  
    39   34   35 1  
    40   39   34 am 
    41   35   36 1  
    42   36   37 1  
    43   38   37 1  
    44   42   39 1  
    45   41   40 ar 
    46   40   45 ar 
    47   41   42 ar 
    48   42   43 ar 
    49   43   44 ar 
    50   44   45 ar 
    51   44   49 ar 
    52   45   46 ar 
    53   46   47 ar 
    54   47   48 ar 
    55   48   49 ar 
    56    6   50 1  
    57    9   51 1  
    58   10   52 1  
    59   11   53 1  
    60   12   54 1  
    61   15   55 1  
    62   18   56 1  
    63   21   57 1  
    64   22   58 1  
    65   23   59 1  
    66   27   60 1  
    67   28   61 1  
    68   29   62 1  
    69   30   63 1  
    70   32   64 1  
    71   32   65 1  
    72   32   66 1  
    73   33   67 1  
    74   33   68 1  
    75   35   69 1  
    76   35   70 1  
    77   36   71 1  
    78   36   72 1  
    79   37   73 1  
    80   38   74 1  
    81   38   75 1  
    82   40   76 1  
    83   41   77 1  
    84   43   78 1  
    85   46   79 1  
    86   47   80 1  
    87   48   81 1  
    88   49   82 1  
@<TRIPOS>SUBSTRUCTURE
     1 OHH         1

