### 
### Created by X-TOOL on Fri Sep 26 17:35:01 2014
### 

@<TRIPOS>MOLECULE
3znr_ligand
   58    62     1     0     0
SMALL
GAST_HUCK


@<TRIPOS>ATOM
      1 F01        -2.3520   -1.2290  -12.7580 F         1 NU9        -0.2155
      2 C02        -3.5380   -1.5770  -12.2760 C.3       1 NU9         0.4382
      3 F03        -3.8520   -2.7950  -12.7110 F         1 NU9        -0.2155
      4 F04        -3.5080   -1.5610  -10.9480 F         1 NU9        -0.2155
      5 C05        -4.5600   -0.6010  -12.7360 C.2       1 NU9         0.3170
      6 N06        -5.7140   -0.9060  -13.3770 N.2       1 NU9        -0.2046
      7 C07        -6.4170    0.2810  -13.6040 C.2       1 NU9         0.1880
      8 N08        -5.6580    1.3040  -13.1290 N.2       1 NU9        -0.0454
      9 O09        -4.5130    0.7690  -12.5620 O.3       1 NU9        -0.0969
     10 C10        -7.6150    0.3910  -14.3000 C.ar      1 NU9         0.0262
     11 C11        -8.2790   -0.7610  -14.7530 C.ar      1 NU9        -0.0460
     12 C12        -9.4830   -0.6460  -15.4630 C.ar      1 NU9        -0.0549
     13 C13       -10.0330    0.6130  -15.7250 C.ar      1 NU9        -0.0413
     14 C14        -9.3760    1.7610  -15.2680 C.ar      1 NU9         0.0513
     15 C15        -8.1670    1.6530  -14.5690 C.ar      1 NU9        -0.0301
     16 C16        -9.9300    3.1120  -15.5560 C.2       1 NU9         0.2032
     17 O17       -11.0670    3.4290  -15.2390 O.2       1 NU9        -0.3847
     18 N18        -9.0430    3.9960  -16.2380 N.am      1 NU9        -0.3107
     19 C19        -9.3750    5.3410  -16.6240 C.3       1 NU9        -0.0452
     20 C20        -8.6790    5.9040  -17.8860 C.3       1 NU9        -0.0718
     21 C21        -9.3620    7.2260  -18.1040 C.3       1 NU9        -0.1058
     22 C22        -9.1840    7.7470  -19.5350 C.3       1 NU9         0.0257
     23 O23        -8.4900    6.8350  -20.4010 O.3       1 NU9        -0.3842
     24 C24        -8.9880    5.4860  -20.3600 C.3       1 NU9         0.0257
     25 C25        -9.0510    4.9000  -18.9430 C.3       1 NU9        -0.1058
     26 C26        -7.2350    5.9110  -17.4560 C.2       1 NU9         0.0841
     27 N27        -6.4450    4.6980  -17.1390 N.pl3     1 NU9        -0.2291
     28 C28        -4.9450    5.1260  -16.6630 C.2       1 NU9         0.1462
     29 C29        -4.8640    6.5640  -16.7600 C.2       1 NU9         0.0919
     30 S30        -6.2920    7.1180  -17.2710 S.3       1 NU9         0.0467
     31 C31        -3.9610    4.2280  -16.2570 C.ar      1 NU9         0.0286
     32 C32        -4.3380    2.9560  -15.7960 C.ar      1 NU9        -0.0464
     33 C33        -3.3670    2.0370  -15.3820 C.ar      1 NU9        -0.0579
     34 C34        -2.0080    2.3810  -15.4260 C.ar      1 NU9        -0.0588
     35 C35        -1.6280    3.6470  -15.8850 C.ar      1 NU9        -0.0579
     36 C36        -2.6000    4.5650  -16.3000 C.ar      1 NU9        -0.0464
     37 H1         -7.8600   -1.7407  -14.5534 H         1 NU9         0.0665
     38 H2         -9.9905   -1.5385  -15.8109 H         1 NU9         0.0631
     39 H3        -10.9614    0.6989  -16.2780 H         1 NU9         0.0674
     40 H4         -7.6554    2.5482  -14.2343 H         1 NU9         0.0685
     41 H5         -8.1291    3.6581  -16.4629 H         1 NU9         0.1817
     42 H6         -9.1182    6.0005  -15.7819 H         1 NU9         0.0228
     43 H7        -10.4602    5.3770  -16.8002 H         1 NU9         0.0228
     44 H8         -8.9383    7.9620  -17.4049 H         1 NU9        -0.0002
     45 H9        -10.4368    7.1057  -17.9030 H         1 NU9        -0.0002
     46 H10        -8.6147    8.6873  -19.4936 H         1 NU9         0.0537
     47 H11       -10.1799    7.9396  -19.9605 H         1 NU9         0.0537
     48 H12        -8.3274    4.8522  -20.9699 H         1 NU9         0.0537
     49 H13       -10.0019    5.4759  -20.7864 H         1 NU9         0.0537
     50 H14       -10.0761    4.5499  -18.7516 H         1 NU9        -0.0002
     51 H15        -8.3558    4.0498  -18.8819 H         1 NU9        -0.0002
     52 H16        -6.7911    3.7304  -17.2088 H         1 NU9         0.2612
     53 H17        -3.9900    7.1709  -16.5283 H         1 NU9         0.1101
     54 H18        -5.3869    2.6845  -15.7607 H         1 NU9         0.0649
     55 H19        -3.6659    1.0575  -15.0267 H         1 NU9         0.0626
     56 H20        -1.2555    1.6694  -15.1059 H         1 NU9         0.0642
     57 H21        -0.5788    3.9175  -15.9193 H         1 NU9         0.0626
     58 H22        -2.2988    5.5432  -16.6571 H         1 NU9         0.0649
@<TRIPOS>BOND
     1    1    2 1  
     2    2    3 1  
     3    2    4 1  
     4    2    5 1  
     5    5    6 2  
     6    5    9 1  
     7    6    7 1  
     8    7    8 2  
     9    7   10 1  
    10    8    9 1  
    11   10   11 ar 
    12   10   15 ar 
    13   11   12 ar 
    14   12   13 ar 
    15   13   14 ar 
    16   14   15 ar 
    17   14   16 1  
    18   16   17 2  
    19   16   18 am 
    20   18   19 1  
    21   19   20 1  
    22   20   21 1  
    23   20   25 1  
    24   20   26 1  
    25   21   22 1  
    26   22   23 1  
    27   23   24 1  
    28   24   25 1  
    29   26   27 1  
    30   26   30 1  
    31   27   28 1  
    32   28   29 2  
    33   28   31 1  
    34   29   30 1  
    35   31   32 ar 
    36   31   36 ar 
    37   32   33 ar 
    38   33   34 ar 
    39   34   35 ar 
    40   35   36 ar 
    41   11   37 1  
    42   12   38 1  
    43   13   39 1  
    44   15   40 1  
    45   18   41 1  
    46   19   42 1  
    47   19   43 1  
    48   21   44 1  
    49   21   45 1  
    50   22   46 1  
    51   22   47 1  
    52   24   48 1  
    53   24   49 1  
    54   25   50 1  
    55   25   51 1  
    56   27   52 1  
    57   29   53 1  
    58   32   54 1  
    59   33   55 1  
    60   34   56 1  
    61   35   57 1  
    62   36   58 1  
@<TRIPOS>SUBSTRUCTURE
     1 NU9         1

