### 
### Created by X-TOOL on Fri Sep 26 17:34:43 2014
### 

@<TRIPOS>MOLECULE
3fjz_ligand
   16    15     1     0     0
SMALL
GAST_HUCK


@<TRIPOS>ATOM
      1 C1         59.7700    7.8610   28.2300 C.3       1 GPF         0.0369
      2 C2         59.8430    7.9900   30.7410 C.3       1 GPF         0.0207
      3 C3         60.4190    8.8600   31.8480 C.2       1 GPF         0.0813
      4 O1         60.2120   10.2180   27.1920 O.co2     1 GPF        -0.5587
      5 O2         59.0840    8.4030   25.8560 O.co2     1 GPF        -0.5587
      6 O3         61.5470    8.3340   26.3530 O.co2     1 GPF        -0.5587
      7 O4         61.0100    9.9520   31.5290 O.co2     1 GPF        -0.5645
      8 P1         60.1690    8.7760   26.8160 P.3       1 GPF         0.1070
      9 O5         60.2760    8.4520   33.0020 O.co2     1 GPF        -0.5645
     10 N1         60.1130    8.5870   29.4410 N.4       1 GPF         0.2507
     11 H1         60.3255    6.9118   28.2115 H         1 GPF         0.1013
     12 H2         58.6897    7.6537   28.2300 H         1 GPF         0.1013
     13 H3         58.7557    7.8978   30.8798 H         1 GPF         0.0989
     14 H4         60.3043    6.9924   30.7856 H         1 GPF         0.0989
     15 H5         59.6106    9.4603   29.4105 H         1 GPF         0.2042
     16 H6         61.1039    8.7679   29.4026 H         1 GPF         0.2042
@<TRIPOS>BOND
     1    1    8 1  
     2   10    1 1  
     3    2    3 1  
     4    2   10 1  
     5    3    7 ar 
     6    3    9 ar 
     7    8    4 ar 
     8    8    5 ar 
     9    8    6 ar 
    10    1   11 1  
    11    1   12 1  
    12    2   13 1  
    13    2   14 1  
    14   10   15 1  
    15   10   16 1  
@<TRIPOS>SUBSTRUCTURE
     1 GPF         1

