### 
### Created by X-TOOL on Fri Sep 26 17:34:48 2014
### 

@<TRIPOS>MOLECULE
3ng4_ligand
   14    13     1     0     0
SMALL
GAST_HUCK


@<TRIPOS>ATOM
      1 O1        -35.5970  -22.5230   -9.5730 O.co2     1 SRT        -0.5662
      2 O11       -37.1680  -23.6640   -8.7050 O.co2     1 SRT        -0.5662
      3 C1        -35.9920  -23.4950   -8.9740 C.2       1 SRT         0.0677
      4 C2        -34.8980  -24.5110   -8.6290 C.3       1 SRT         0.1445
      5 O2        -33.8880  -23.9690   -7.8290 O.3       1 SRT        -0.3733
      6 C3        -35.4730  -25.8430   -8.2850 C.3       1 SRT         0.1445
      7 O3        -35.6340  -26.4000   -9.5480 O.3       1 SRT        -0.3733
      8 C4        -34.5910  -26.7460   -7.4630 C.2       1 SRT         0.0677
      9 O4        -33.9400  -27.6020   -8.0250 O.co2     1 SRT        -0.5662
     10 O41       -34.5540  -26.5840   -6.2510 O.co2     1 SRT        -0.5662
     11 H1        -34.3840  -24.6980   -9.5833 H         1 SRT         0.0809
     12 H2        -33.4779  -23.2443   -8.2864 H         1 SRT         0.2126
     13 H3        -36.4358  -25.7206   -7.7674 H         1 SRT         0.0809
     14 H4        -34.7894  -26.4522   -9.9799 H         1 SRT         0.2126
@<TRIPOS>BOND
     1    1    3 ar 
     2    3    2 ar 
     3    3    4 1  
     4    4    5 1  
     5    4    6 1  
     6    6    7 1  
     7    6    8 1  
     8    8    9 ar 
     9    8   10 ar 
    10    4   11 1  
    11    5   12 1  
    12    6   13 1  
    13    7   14 1  
@<TRIPOS>SUBSTRUCTURE
     1 SRT         1

