### 
### Created by X-TOOL on Fri Sep 26 17:34:28 2014
### 

@<TRIPOS>MOLECULE
1x8r_ligand
   35    35     1     0     0
SMALL
GAST_HUCK


@<TRIPOS>ATOM
      1 C1         56.2860   12.1770   27.9070 C.2       1 SC1        -0.0206
      2 C2         55.1440   11.3880   28.2520 C.2       1 SC1        -0.0423
      3 C3         55.3160   10.1140   29.0520 C.3       1 SC1         0.1415
      4 C4         56.7150   10.0620   29.8670 C.3       1 SC1         0.1215
      5 C5         57.8740   10.2840   28.8460 C.3       1 SC1         0.0970
      6 C6         57.6980   11.7780   28.3270 C.3       1 SC1         0.0036
      7 C7         56.1070   13.4350   27.1360 C.2       1 SC1         0.0477
      8 O1         55.1400    8.8710   28.0560 O.3       1 SC1        -0.2592
      9 O2         56.7200    8.7810   30.5050 O.3       1 SC1        -0.3840
     10 O3         59.1440   10.1660   29.4990 O.3       1 SC1        -0.3472
     11 O4         55.2130   13.4830   26.3050 O.co2     1 SC1        -0.5666
     12 O5         56.8630   14.3300   27.3980 O.co2     1 SC1        -0.5666
     13 P1         53.7310    7.9660   27.8310 P.3       1 SC1         0.2044
     14 O6         52.7100    8.9450   27.2190 O.co2     1 SC1        -0.5536
     15 O7         53.3550    7.4670   29.2770 O.co2     1 SC1        -0.5536
     16 O8         54.2470    6.9310   26.8210 O.co2     1 SC1        -0.5536
     17 C8         60.0980    9.0840   29.1230 C.3       1 SC1         0.1809
     18 C9         59.5270    7.5800   29.0190 C.3       1 SC1        -0.0150
     19 C10        61.3260    9.1880   30.0280 C.2       1 SC1         0.0931
     20 O9         61.7740   10.3270   30.3930 O.co2     1 SC1        -0.5436
     21 O10        61.7160    8.0690   30.4590 O.co2     1 SC1        -0.5436
     22 P2         60.5300    9.3660   27.2920 P.3       1 SC1         0.0960
     23 O11        61.8580    8.6100   27.0230 O.co2     1 SC1        -0.5608
     24 O12        60.7630   10.8400   27.0870 O.co2     1 SC1        -0.5608
     25 O13        59.4030    8.7680   26.3880 O.co2     1 SC1        -0.5608
     26 H1         54.1499   11.7038   27.9390 H         1 SC1         0.0595
     27 H2         54.5072   10.0704   29.7963 H         1 SC1         0.0831
     28 H3         56.7548   10.8532   30.6301 H         1 SC1         0.0674
     29 H4         57.8071    9.5653   28.0160 H         1 SC1         0.0643
     30 H5         58.0129   12.4545   29.1352 H         1 SC1         0.0411
     31 H6         58.3586   11.9126   27.4578 H         1 SC1         0.0411
     32 H7         56.6421    8.1004   29.8468 H         1 SC1         0.2103
     33 H8         59.2169    7.2357   30.0167 H         1 SC1         0.0264
     34 H9         60.3125    6.9156   28.6297 H         1 SC1         0.0264
     35 H10        58.6619    7.5623   28.3398 H         1 SC1         0.0264
@<TRIPOS>BOND
     1    1    2 2  
     2    1    6 1  
     3    1    7 1  
     4    2    3 1  
     5    3    4 1  
     6    3    8 1  
     7    4    5 1  
     8    4    9 1  
     9    5    6 1  
    10    5   10 1  
    11    7   11 ar 
    12    7   12 ar 
    13    8   13 1  
    14   10   17 1  
    15   13   14 ar 
    16   13   15 ar 
    17   13   16 ar 
    18   17   18 1  
    19   17   19 1  
    20   17   22 1  
    21   19   20 ar 
    22   19   21 ar 
    23   22   23 ar 
    24   22   24 ar 
    25   22   25 ar 
    26    2   26 1  
    27    3   27 1  
    28    4   28 1  
    29    5   29 1  
    30    6   30 1  
    31    6   31 1  
    32    9   32 1  
    33   18   33 1  
    34   18   34 1  
    35   18   35 1  
@<TRIPOS>SUBSTRUCTURE
     1 SC1         1

