### 
### Created by X-TOOL on Fri Sep 26 17:34:44 2014
### 

@<TRIPOS>MOLECULE
3dxh_ligand
   36    37     1     0     0
SMALL
GAST_HUCK


@<TRIPOS>ATOM
      1 N1         36.4350   -2.0050   11.9870 N.am      1 UDP        -0.1592
      2 C2         35.2420   -2.1710   11.3440 C.2       1 UDP         0.3328
      3 N3         34.5440   -3.3470   11.5030 N.am      1 UDP        -0.1865
      4 C4         35.0230   -4.3700   12.2990 C.2       1 UDP         0.1822
      5 C5         36.2460   -4.1980   12.9610 C.2       1 UDP         0.0062
      6 C6         36.9140   -2.9780   12.8320 C.2       1 UDP         0.0591
      7 O2         34.7960   -1.2630   10.6420 O.2       1 UDP        -0.3815
      8 O4         34.3380   -5.4010   12.3930 O.2       1 UDP        -0.4124
      9 C1'        37.1470   -0.7240   11.7560 C.3       1 UDP         0.2059
     10 C2'        36.6930    0.4060   12.6710 C.3       1 UDP         0.1387
     11 O2'        36.6160    1.6170   11.9210 O.3       1 UDP        -0.3836
     12 C3'        37.8520    0.4810   13.6240 C.3       1 UDP         0.1149
     13 C4'        39.0500    0.1330   12.7350 C.3       1 UDP         0.1189
     14 O4'        38.5510   -0.9050   11.9070 O.3       1 UDP        -0.3363
     15 O3'        37.9330    1.7410   14.2660 O.3       1 UDP        -0.3864
     16 C5'        40.2940   -0.3260   13.4860 C.3       1 UDP         0.1132
     17 O5'        39.8840   -0.9690   14.6690 O.3       1 UDP        -0.2436
     18 PA         40.1000   -0.2940   16.1200 P.3       1 UDP         0.3276
     19 O1A        40.1090    1.1900   16.0240 O.co2     1 UDP        -0.5556
     20 O2A        39.0410   -0.7110   17.0680 O.co2     1 UDP        -0.5556
     21 O3A        41.5370   -0.8310   16.6050 O.3       1 UDP        -0.1548
     22 PB         42.0980   -2.2710   16.1500 P.3       1 UDP         0.2069
     23 O1B        40.9800   -3.2310   15.9870 O.co2     1 UDP        -0.5891
     24 O2B        42.7860   -2.1220   14.8430 O.co2     1 UDP        -0.5891
     25 O3B        43.0370   -2.7770   17.1830 O.co2     1 UDP        -0.5891
     26 H1         33.6699   -3.4636   11.0314 H         1 UDP         0.2259
     27 H2         36.6677   -5.0003   13.5647 H         1 UDP         0.0258
     28 H3         37.8217   -2.7961   13.4055 H         1 UDP         0.1178
     29 H4         36.9456   -0.4168   10.7192 H         1 UDP         0.0997
     30 H5         35.7395    0.1905   13.1753 H         1 UDP         0.0676
     31 H6         36.3330    2.3231   12.4900 H         1 UDP         0.2101
     32 H7         37.7442   -0.2845   14.4066 H         1 UDP         0.0648
     33 H8         39.3226    1.0087   12.1277 H         1 UDP         0.0651
     34 H9         38.7025    1.7626   14.8226 H         1 UDP         0.2100
     35 H10        40.9211    0.5432   13.7333 H         1 UDP         0.0648
     36 H11        40.8680   -1.0265   12.8617 H         1 UDP         0.0648
@<TRIPOS>BOND
     1    1    2 am 
     2    1    6 1  
     3    1    9 1  
     4    2    3 am 
     5    2    7 2  
     6    3    4 am 
     7    4    5 1  
     8    4    8 2  
     9    5    6 2  
    10    9   10 1  
    11    9   14 1  
    12   10   11 1  
    13   10   12 1  
    14   12   13 1  
    15   12   15 1  
    16   13   14 1  
    17   13   16 1  
    18   16   17 1  
    19   17   18 1  
    20   18   19 ar 
    21   18   20 ar 
    22   18   21 1  
    23   21   22 1  
    24   22   23 ar 
    25   22   24 ar 
    26   22   25 ar 
    27    3   26 1  
    28    5   27 1  
    29    6   28 1  
    30    9   29 1  
    31   10   30 1  
    32   11   31 1  
    33   12   32 1  
    34   13   33 1  
    35   15   34 1  
    36   16   35 1  
    37   16   36 1  
@<TRIPOS>SUBSTRUCTURE
     1 UDP         1

