### 
### Created by X-TOOL on Fri Sep 26 17:34:46 2014
### 

@<TRIPOS>MOLECULE
3kqr_ligand
   15    14     1     0     0
SMALL
GAST_HUCK


@<TRIPOS>ATOM
      1 CA         17.6950   14.1940   56.2520 C.3       1 OPE         0.1179
      2 CB         18.0060   13.6200   54.8940 C.3       1 OPE        -0.0069
      3 O1         15.4830   17.2880   56.8380 O.co2     1 OPE        -0.5537
      4 O2         17.9730   17.3480   57.2680 O.co2     1 OPE        -0.5537
      5 O3         16.5610   15.6960   58.5480 O.co2     1 OPE        -0.5537
      6 O4         16.9680   15.3580   55.9940 O.3       1 OPE        -0.2708
      7 N          18.8160   14.6110   54.1520 N.4       1 OPE         0.2204
      8 P          16.6900   16.3590   57.2420 P.3       1 OPE         0.2009
      9 H1         18.6228   14.4297   56.7939 H         1 OPE         0.0666
     10 H2         17.0949   13.4863   56.8428 H         1 OPE         0.0666
     11 H3         17.0709   13.4204   54.3503 H         1 OPE         0.0839
     12 H4         18.5724   12.6837   55.0055 H         1 OPE         0.0839
     13 H5         19.0367   14.2478   53.2380 H         1 OPE         0.1995
     14 H6         19.6696   14.7926   54.6564 H         1 OPE         0.1995
     15 H7         18.2936   15.4677   54.0560 H         1 OPE         0.1995
@<TRIPOS>BOND
     1    1    2 1  
     2    6    1 1  
     3    2    7 1  
     4    8    3 ar 
     5    8    4 ar 
     6    8    5 ar 
     7    6    8 1  
     8    1    9 1  
     9    1   10 1  
    10    2   11 1  
    11    2   12 1  
    12    7   13 1  
    13    7   14 1  
    14    7   15 1  
@<TRIPOS>SUBSTRUCTURE
     1 OPE         1

