### 
### Created by X-TOOL on Fri Sep 26 17:34:50 2014
### 

@<TRIPOS>MOLECULE
3q7q_ligand
   46    48     1     0     0
SMALL
GAST_HUCK


@<TRIPOS>ATOM
      1 PG         -4.3560  -16.0850    1.3970 P.3       1 GNP         0.1803
      2 O1G        -3.8420  -16.0280   -0.0230 O.co2     1 GNP        -0.5454
      3 O2G        -5.5150  -17.0220    1.6390 O.co2     1 GNP        -0.5454
      4 O3G        -4.6200  -14.6500    1.7440 O.co2     1 GNP        -0.5454
      5 N3B        -3.2080  -16.6010    2.3660 N.am      1 GNP        -0.1803
      6 PB         -2.0110  -15.7160    2.9180 P.3       1 GNP         0.2543
      7 O1B        -0.9220  -15.6540    1.9160 O.co2     1 GNP        -0.6257
      8 O2B        -2.5470  -14.4370    3.4370 O.co2     1 GNP        -0.6257
      9 O3A        -1.4510  -16.4650    4.1160 O.3       1 GNP        -0.1431
     10 PA         -1.8920  -16.1360    5.5330 P.3       1 GNP         0.2949
     11 O1A        -3.3660  -16.0170    5.5190 O.co2     1 GNP        -0.6129
     12 O2A        -1.1170  -15.0010    6.0720 O.co2     1 GNP        -0.6129
     13 O5'        -1.5460  -17.4090    6.3920 O.3       1 GNP        -0.2478
     14 C5'        -2.0170  -18.6720    5.9580 C.3       1 GNP         0.1128
     15 C4'        -1.8550  -19.7210    7.0420 C.3       1 GNP         0.1190
     16 O4'        -0.4510  -20.0430    7.1910 O.3       1 GNP        -0.3347
     17 C3'        -2.3420  -19.3130    8.4280 C.3       1 GNP         0.1151
     18 O3'        -2.9020  -20.4330    9.0940 O.3       1 GNP        -0.3864
     19 C2'        -1.0680  -18.8660    9.1290 C.3       1 GNP         0.1407
     20 O2'        -1.1580  -19.0340   10.5320 O.3       1 GNP        -0.3835
     21 C1'        -0.0630  -19.8440    8.5350 C.3       1 GNP         0.2218
     22 N9          1.3110  -19.3540    8.5370 N.pl3     1 GNP        -0.0954
     23 C8          1.7860  -18.1880    7.9890 C.2       1 GNP         0.1855
     24 N7          3.0720  -18.0340    8.1510 N.2       1 GNP        -0.1929
     25 C5          3.4740  -19.1690    8.8470 C.2       1 GNP         0.2558
     26 C6          4.7510  -19.5660    9.3090 C.2       1 GNP         0.2628
     27 O6          5.8290  -18.9690    9.1930 O.2       1 GNP        -0.3594
     28 N1          4.7020  -20.7950    9.9640 N.am      1 GNP        -0.2478
     29 C2          3.5630  -21.5430   10.1540 C.cat     1 GNP         0.2041
     30 N2          3.7040  -22.7000   10.8130 N.pl3     1 GNP        -0.3327
     31 N3          2.3620  -21.1850    9.7300 N.pl3     1 GNP        -0.1901
     32 C4          2.3960  -19.9910    9.0900 C.2       1 GNP         0.3268
     33 H1         -3.2419  -17.5590    2.6509 H         1 GNP         0.2132
     34 H2         -1.4458  -18.9822    5.0706 H         1 GNP         0.0648
     35 H3         -3.0823  -18.5873    5.6973 H         1 GNP         0.0648
     36 H4         -2.4099  -20.6175    6.7282 H         1 GNP         0.0651
     37 H5         -3.0785  -18.4978    8.3732 H         1 GNP         0.0648
     38 H6         -3.2025  -20.1698    9.9559 H         1 GNP         0.2100
     39 H7         -0.8163  -17.8215    8.8931 H         1 GNP         0.0677
     40 H8         -1.3043  -19.9513   10.7312 H         1 GNP         0.2101
     41 H9         -0.1053  -20.7913    9.0925 H         1 GNP         0.1021
     42 H10         1.1549  -17.4662    7.4725 H         1 GNP         0.1823
     43 H11         5.5603  -21.1613   10.3234 H         1 GNP         0.1819
     44 H12         2.8836  -23.2992   10.9829 H         1 GNP         0.1774
     45 H13         4.6328  -22.9908   11.1501 H         1 GNP         0.1774
     46 H14         1.5080  -21.7439    9.8690 H         1 GNP         0.2519
@<TRIPOS>BOND
     1    1    2 ar 
     2    1    3 ar 
     3    1    4 ar 
     4    1    5 am 
     5    5    6 1  
     6    6    7 ar 
     7    6    8 ar 
     8    6    9 1  
     9    9   10 1  
    10   10   11 ar 
    11   10   12 ar 
    12   10   13 1  
    13   13   14 1  
    14   14   15 1  
    15   15   16 1  
    16   15   17 1  
    17   16   21 1  
    18   17   18 1  
    19   17   19 1  
    20   19   20 1  
    21   19   21 1  
    22   21   22 1  
    23   22   23 1  
    24   22   32 1  
    25   23   24 2  
    26   24   25 1  
    27   25   26 1  
    28   25   32 2  
    29   26   27 2  
    30   26   28 am 
    31   28   29 ar 
    32   29   30 ar 
    33   29   31 ar 
    34   31   32 1  
    35    5   33 1  
    36   14   34 1  
    37   14   35 1  
    38   15   36 1  
    39   17   37 1  
    40   18   38 1  
    41   19   39 1  
    42   20   40 1  
    43   21   41 1  
    44   23   42 1  
    45   28   43 1  
    46   30   44 1  
    47   30   45 1  
    48   31   46 1  
@<TRIPOS>SUBSTRUCTURE
     1 GNP         1

