### 
### Created by X-TOOL on Fri Sep 26 17:34:18 2014
### 

@<TRIPOS>MOLECULE
1g9r_ligand
   57    59     1     0     0
SMALL
GAST_HUCK


@<TRIPOS>ATOM
      1 N1         27.1630   44.4560   57.5030 N.am      1 UPF        -0.1592
      2 C2         27.5340   43.7960   56.3230 C.2       1 UPF         0.3328
      3 N3         26.6600   44.0740   55.2470 N.am      1 UPF        -0.1865
      4 C4         25.5010   44.9260   55.2740 C.2       1 UPF         0.1822
      5 C5         25.2030   45.5630   56.5200 C.2       1 UPF         0.0062
      6 C6         25.9940   45.3320   57.5600 C.2       1 UPF         0.0591
      7 O2         28.5080   43.0600   56.2490 O.2       1 UPF        -0.3815
      8 O4         24.8430   45.0630   54.2610 O.2       1 UPF        -0.4124
      9 C1'        27.8490   44.3980   58.8810 C.3       1 UPF         0.2059
     10 C2'        29.1310   45.2080   58.7930 C.3       1 UPF         0.1387
     11 O2'        30.2360   44.4440   59.2660 O.3       1 UPF        -0.3836
     12 C3'        28.8440   46.4400   59.6380 C.3       1 UPF         0.1149
     13 C4'        28.0680   45.8110   60.7880 C.3       1 UPF         0.1189
     14 O4'        27.2480   44.7610   60.1030 O.3       1 UPF        -0.3363
     15 O3'        29.9230   47.2210   60.1170 O.3       1 UPF        -0.3864
     16 C5'        26.7540   46.2280   61.3700 C.3       1 UPF         0.1128
     17 O5'        26.1960   47.5730   61.0630 O.3       1 UPF        -0.2476
     18 PA         26.6690   49.0830   60.7750 P.3       1 UPF         0.2972
     19 O1A        28.1310   49.3020   60.7700 O.co2     1 UPF        -0.6127
     20 O2A        25.9930   49.6170   59.5510 O.co2     1 UPF        -0.6127
     21 O3A        25.9380   49.2600   62.1840 O.3       1 UPF        -0.1318
     22 PB         25.6800   50.4760   63.1700 P.3       1 UPF         0.2997
     23 O1B        27.0200   51.0960   63.2630 O.co2     1 UPF        -0.6127
     24 O2B        24.7090   51.3580   62.5300 O.co2     1 UPF        -0.6127
     25 O3B        25.2160   49.9670   64.5840 O.3       1 UPF        -0.2151
     26 C1'        25.5920   49.8060   66.1370 C.3       1 UPF         0.2278
     27 C2'        27.0680   49.2640   66.1080 C.3       1 UPF         0.1845
     28 C3'        27.3880   48.0340   65.1120 C.3       1 UPF         0.1196
     29 C4'        26.3550   46.8930   65.3890 C.3       1 UPF         0.1122
     30 C5'        24.9230   47.5850   65.3610 C.3       1 UPF         0.1134
     31 C6'        23.9020   46.5550   65.8390 C.3       1 UPF         0.0730
     32 F2'        27.9950   50.2870   65.8600 F         1 UPF        -0.2370
     33 O3'        28.6640   47.5300   65.3880 O.3       1 UPF        -0.3861
     34 O4'        26.6420   46.3020   66.6940 O.3       1 UPF        -0.3865
     35 O5'        24.7110   48.6960   66.3740 O.3       1 UPF        -0.3362
     36 O6'        23.6600   45.3090   65.2480 O.3       1 UPF        -0.3924
     37 H1         26.8696   43.6317   54.3750 H         1 UPF         0.2259
     38 H2         24.3433   46.2249   56.6131 H         1 UPF         0.0258
     39 H3         25.7603   45.8202   58.5049 H         1 UPF         0.1178
     40 H4         28.1186   43.3390   59.0068 H         1 UPF         0.0997
     41 H5         29.3286   45.5052   57.7525 H         1 UPF         0.0676
     42 H6         31.0286   44.9640   59.2044 H         1 UPF         0.2101
     43 H7         28.1955   47.1174   59.0631 H         1 UPF         0.0648
     44 H8         28.7797   45.4943   61.5646 H         1 UPF         0.0651
     45 H9         29.5881   47.9146   60.6731 H         1 UPF         0.2100
     46 H10        26.8586   46.1700   62.4635 H         1 UPF         0.0648
     47 H11        26.0097   45.4914   61.0332 H         1 UPF         0.0648
     48 H12        25.4442   50.6854   66.7811 H         1 UPF         0.1002
     49 H13        27.2616   48.8903   67.1243 H         1 UPF         0.0734
     50 H14        27.3259   48.3661   64.0652 H         1 UPF         0.0651
     51 H15        26.4156   46.1167   64.6121 H         1 UPF         0.0647
     52 H16        24.7104   47.9430   64.3429 H         1 UPF         0.0647
     53 H17        22.9339   47.0769   65.8214 H         1 UPF         0.0584
     54 H18        24.1800   46.3329   66.8798 H         1 UPF         0.0584
     55 H19        28.7064   47.2593   66.2976 H         1 UPF         0.2100
     56 H20        27.5019   45.8987   66.6755 H         1 UPF         0.2100
     57 H21        22.9789   44.8571   65.7321 H         1 UPF         0.2095
@<TRIPOS>BOND
     1    1    2 am 
     2    1    6 am 
     3    1    9 1  
     4    2    3 am 
     5    2    7 2  
     6    3    4 am 
     7    4    5 1  
     8    4    8 2  
     9    5    6 2  
    10    9   10 1  
    11    9   14 1  
    12   10   11 1  
    13   10   12 1  
    14   12   13 1  
    15   12   15 1  
    16   13   14 1  
    17   13   16 1  
    18   16   17 1  
    19   17   18 1  
    20   18   19 ar 
    21   18   20 ar 
    22   18   21 1  
    23   21   22 1  
    24   22   23 ar 
    25   22   24 ar 
    26   22   25 1  
    27   25   26 1  
    28   26   27 1  
    29   26   35 1  
    30   27   28 1  
    31   27   32 1  
    32   28   29 1  
    33   28   33 1  
    34   29   30 1  
    35   29   34 1  
    36   30   31 1  
    37   30   35 1  
    38   31   36 1  
    39    3   37 1  
    40    5   38 1  
    41    6   39 1  
    42    9   40 1  
    43   10   41 1  
    44   11   42 1  
    45   12   43 1  
    46   13   44 1  
    47   15   45 1  
    48   16   46 1  
    49   16   47 1  
    50   26   48 1  
    51   27   49 1  
    52   28   50 1  
    53   29   51 1  
    54   30   52 1  
    55   31   53 1  
    56   31   54 1  
    57   33   55 1  
    58   34   56 1  
    59   36   57 1  
@<TRIPOS>SUBSTRUCTURE
     1 UPF         1

