### 
### Created by X-TOOL on Fri Sep 26 17:34:43 2014
### 

@<TRIPOS>MOLECULE
2zy1_ligand
   42    43     1     0     0
SMALL
GAST_HUCK


@<TRIPOS>ATOM
      1 CAJ        13.0250   57.9300   36.9900 C.ar      1 MOL        -0.0285
      2 CAF        11.9720   58.6310   36.4120 C.ar      1 MOL        -0.0697
      3 CAE        11.5460   59.8370   36.9550 C.ar      1 MOL        -0.0723
      4 CAG        12.1690   60.3470   38.0910 C.ar      1 MOL        -0.0697
      5 CAK        13.2170   59.6440   38.6680 C.ar      1 MOL        -0.0285
      6 CAV        13.6540   58.4400   38.1200 C.ar      1 MOL         0.1159
      7 OAS        14.7730   57.8650   38.6400 O.3       1 MOL        -0.2597
      8 CAW        15.1870   56.7080   38.0480 C.ar      1 MOL         0.1094
      9 CAM        16.0440   56.7590   36.9540 C.ar      1 MOL        -0.0276
     10 CAL        14.8530   55.4800   38.6050 C.ar      1 MOL        -0.0354
     11 CAH        15.3850   54.3100   38.0680 C.ar      1 MOL        -0.0762
     12 CAI        16.2450   54.3650   36.9770 C.ar      1 MOL        -0.0707
     13 CAU        16.5800   55.5930   36.4190 C.ar      1 MOL        -0.0509
     14 CAP        17.5640   55.6720   35.2490 C.3       1 MOL        -0.0197
     15 CAN        18.9900   56.0180   35.6930 C.3       1 MOL        -0.0232
     16 CAO        19.6100   54.9210   36.5620 C.3       1 MOL         0.0327
     17 NAR        19.3850   53.6280   35.8970 N.am      1 MOL        -0.2856
     18 CAT        19.3900   52.4720   36.5520 C.2       1 MOL         0.1925
     19 OAA        19.5620   52.3680   37.7680 O.2       1 MOL        -0.3955
     20 CAQ        19.0890   51.2510   35.6820 C.3       1 MOL         0.1083
     21 PAX        20.5540   50.2720   35.2740 P.3       1 MOL         0.0776
     22 OAC        21.2780   51.0530   34.0650 O.co2     1 MOL        -0.5606
     23 OAD        21.4880   50.3020   36.5840 O.co2     1 MOL        -0.5606
     24 OAB        20.1230   48.9070   34.8850 O.co2     1 MOL        -0.5606
     25 H1         13.3538   56.9902   36.5613 H         1 MOL         0.0552
     26 H2         11.4801   58.2337   35.5315 H         1 MOL         0.0590
     27 H3         10.7290   60.3805   36.4944 H         1 MOL         0.0528
     28 H4         11.8381   61.2854   38.5211 H         1 MOL         0.0590
     29 H5         13.7011   60.0360   39.5551 H         1 MOL         0.0552
     30 H6         16.2966   57.7170   36.5141 H         1 MOL         0.0488
     31 H7         14.1810   55.4325   39.4542 H         1 MOL         0.0496
     32 H8         15.1270   53.3513   38.5032 H         1 MOL         0.0573
     33 H9         16.6539   53.4509   36.5619 H         1 MOL         0.0470
     34 H10        17.2164   56.4463   34.5493 H         1 MOL         0.0425
     35 H11        17.5817   54.6978   34.7385 H         1 MOL         0.0425
     36 H12        18.9635   56.9539   36.2703 H         1 MOL         0.0307
     37 H13        19.6152   56.1564   34.7986 H         1 MOL         0.0307
     38 H14        19.1342   54.9177   37.5538 H         1 MOL         0.0521
     39 H15        20.6896   55.0997   36.6738 H         1 MOL         0.0521
     40 H16        19.2214   53.6188   34.9105 H         1 MOL         0.1851
     41 H17        18.6301   51.5971   34.7441 H         1 MOL         0.0692
     42 H18        18.3794   50.6063   36.2214 H         1 MOL         0.0692
@<TRIPOS>BOND
     1    1    2 ar 
     2    1    6 ar 
     3    2    3 ar 
     4    3    4 ar 
     5    4    5 ar 
     6    5    6 ar 
     7    6    7 1  
     8    7    8 1  
     9    8    9 ar 
    10    8   10 ar 
    11    9   13 ar 
    12   10   11 ar 
    13   11   12 ar 
    14   12   13 ar 
    15   13   14 1  
    16   14   15 1  
    17   15   16 1  
    18   16   17 1  
    19   17   18 am 
    20   18   19 2  
    21   18   20 1  
    22   20   21 1  
    23   21   22 ar 
    24   21   23 ar 
    25   21   24 ar 
    26    1   25 1  
    27    2   26 1  
    28    3   27 1  
    29    4   28 1  
    30    5   29 1  
    31    9   30 1  
    32   10   31 1  
    33   11   32 1  
    34   12   33 1  
    35   14   34 1  
    36   14   35 1  
    37   15   36 1  
    38   15   37 1  
    39   16   38 1  
    40   16   39 1  
    41   17   40 1  
    42   20   41 1  
    43   20   42 1  
@<TRIPOS>SUBSTRUCTURE
     1 MOL         1

