### 
### Created by X-TOOL on Sat Nov 28 16:08:00 2015
### 

@<TRIPOS>MOLECULE
4oag_ligand
   39    41     1     0     0
SMALL
GAST_HUCK


@<TRIPOS>ATOM
      1 PB         77.4250  -11.3180    4.4600 P.3       1 ADP         0.2069
      2 O1B        78.3880  -10.9800    3.3350 O.co2     1 ADP        -0.5891
      3 O2B        76.4510  -10.2010    4.8040 O.co2     1 ADP        -0.5891
      4 O3B        76.7860  -12.6720    4.3610 O.co2     1 ADP        -0.5891
      5 PA         78.2520  -12.3450    7.0080 P.3       1 ADP         0.3276
      6 O1A        79.0440  -11.7100    8.1310 O.co2     1 ADP        -0.5556
      7 O2A        76.8040  -12.7310    7.1880 O.co2     1 ADP        -0.5556
      8 O3A        78.4010  -11.3640    5.7390 O.3       1 ADP        -0.1548
      9 O5'        79.0680  -13.5930    6.4310 O.3       1 ADP        -0.2436
     10 C5'        78.3970  -14.7810    6.0500 C.3       1 ADP         0.1132
     11 C4'        79.3110  -15.9270    6.4360 C.3       1 ADP         0.1189
     12 O4'        79.3830  -15.9870    7.8620 O.3       1 ADP        -0.3364
     13 C3'        78.8080  -17.2800    5.9580 C.3       1 ADP         0.1149
     14 O3'        79.9030  -17.9980    5.3610 O.3       1 ADP        -0.3864
     15 C2'        78.3280  -17.9780    7.2180 C.3       1 ADP         0.1385
     16 O2'        78.5450  -19.3900    7.1630 O.3       1 ADP        -0.3836
     17 C1'        79.2200  -17.3430    8.2720 C.3       1 ADP         0.2010
     18 N9         78.7530  -17.3270    9.6760 N.pl3     1 ADP        -0.1919
     19 C8         77.6270  -16.8020   10.2050 C.2       1 ADP         0.1123
     20 N7         77.6250  -16.9720   11.5570 N.2       1 ADP        -0.2958
     21 C5         78.7750  -17.5970   11.8860 C.ar      1 ADP         0.1045
     22 C6         79.4170  -18.0760   13.1230 C.ar      1 ADP         0.1298
     23 N6         78.8120  -17.9210   14.3220 N.pl3     1 ADP        -0.3152
     24 N1         80.6180  -18.6740   13.0100 N.ar      1 ADP        -0.2698
     25 C2         81.2420  -18.8320   11.8180 C.ar      1 ADP         0.0533
     26 N3         80.7120  -18.4310   10.6550 N.ar      1 ADP        -0.2714
     27 C4         79.5060  -17.8200   10.6430 C.ar      1 ADP         0.1613
     28 H          78.2173  -14.7859    4.9648 H         1 ADP         0.0648
     29 H          77.4372  -14.8636    6.5810 H         1 ADP         0.0648
     30 H          80.3101  -15.7435    6.0139 H         1 ADP         0.0651
     31 H          77.9881  -17.1694    5.2331 H         1 ADP         0.0648
     32 H          80.2419  -17.5018    4.6251 H         1 ADP         0.2100
     33 H          77.2640  -17.7748    7.4091 H         1 ADP         0.0676
     34 H          78.0724  -19.7533    6.4234 H         1 ADP         0.2101
     35 H          80.1887  -17.8638    8.2521 H         1 ADP         0.0996
     36 H          76.8371  -16.3147    9.6353 H         1 ADP         0.1349
     37 H          79.2721  -18.2605   15.1787 H         1 ADP         0.1820
     38 H          77.8910  -17.4634   14.3788 H         1 ADP         0.1820
     39 H          82.2170  -19.3056   11.8047 H         1 ADP         0.0996
@<TRIPOS>BOND
     1    1    2 ar 
     2    1    3 ar 
     3    1    4 ar 
     4    8    1 1  
     5    5    6 ar 
     6    5    7 ar 
     7    5    8 1  
     8    5    9 1  
     9    9   10 1  
    10   10   11 1  
    11   11   12 1  
    12   11   13 1  
    13   12   17 1  
    14   13   14 1  
    15   13   15 1  
    16   15   16 1  
    17   15   17 1  
    18   17   18 1  
    19   18   19 1  
    20   18   27 1  
    21   19   20 2  
    22   20   21 1  
    23   21   22 ar 
    24   21   27 ar 
    25   22   23 1  
    26   22   24 ar 
    27   24   25 ar 
    28   25   26 ar 
    29   26   27 ar 
    30   10   28 1  
    31   10   29 1  
    32   11   30 1  
    33   13   31 1  
    34   14   32 1  
    35   15   33 1  
    36   16   34 1  
    37   17   35 1  
    38   19   36 1  
    39   23   37 1  
    40   23   38 1  
    41   25   39 1  
@<TRIPOS>SUBSTRUCTURE
     1 ADP         1

