REMARK  4 active torsions:
REMARK  status: ('A' for Active; 'I' for Inactive)
REMARK       I    between atoms: N1_1  and  C2_2 
REMARK       I    between atoms: C2_2  and  N3_3 
REMARK    1  A    between atoms: N3_3  and  C4_4 
REMARK    2  A    between atoms: C12_12  and  S15_15 
REMARK    3  A    between atoms: S15_15  and  N18_18 
REMARK    4  A    between atoms: C22_22  and  C24_23 
ROOT
ATOM      1  C4  QGG d         -39.818 175.151  71.264  0.00  0.00     0.153 A 
ATOM      2  N5  QGG d         -40.223 175.958  72.220  0.00  0.00    -0.240 NA
ATOM      3  C6  QGG d         -39.855 175.833  73.488  0.00  0.00     0.143 A 
ATOM      4  C7  QGG d         -39.035 174.805  73.881  0.00  0.00     0.062 A 
ATOM      5 CL8  QGG d         -38.566 174.689  75.515  0.00  0.00    -0.082 Cl
ATOM      6  C9  QGG d         -38.544 173.857  72.959  0.00  0.00     0.001 A 
ATOM      7  C10 QGG d         -37.686 172.786  73.336  0.00  0.00     0.016 A 
ATOM      8  C11 QGG d         -37.263 171.935  72.395  0.00  0.00     0.026 A 
ATOM      9  C12 QGG d         -37.640 172.120  71.065  0.00  0.00     0.080 A 
ATOM     10  C13 QGG d         -38.468 173.125  70.666  0.00  0.00     0.041 A 
ATOM     11  C14 QGG d         -38.929 174.024  71.613  0.00  0.00     0.024 A 
ENDROOT
BRANCH   9  12
ATOM     12  S15 QGG d         -36.992 171.005  69.889  0.00  0.00     0.261 S 
ATOM     13  O16 QGG d         -37.285 171.448  68.558  0.00  0.00    -0.200 OA
ATOM     14  O17 QGG d         -35.708 170.924  70.380  0.00  0.00    -0.200 OA
BRANCH  12  15
ATOM     15  N18 QGG d         -37.840 169.568  70.146  0.00  0.00    -0.292 N 
ATOM     16  C19 QGG d         -37.495 168.464  71.063  0.00  0.00     0.136 C 
ATOM     17  C20 QGG d         -38.861 167.872  71.496  0.00  0.00     0.023 C 
ATOM     18  C21 QGG d         -39.758 168.007  70.238  0.00  0.00     0.039 C 
ATOM     19  C22 QGG d         -39.112 169.201  69.514  0.00  0.00     0.197 C 
BRANCH  19  20
ATOM     20  C24 QGG d         -38.899 168.819  68.083  0.00  0.00     0.197 C 
ATOM     21  O25 QGG d         -37.916 168.227  67.648  0.00  0.00    -0.646 OA
ATOM     22  O26 QGG d         -39.893 169.186  67.292  0.00  0.00    -0.646 OA
ENDBRANCH  19  20
ENDBRANCH  12  15
ENDBRANCH   9  12
BRANCH   1  23
ATOM     23  N3  QGG d         -40.251 175.283  69.975  0.00  0.00    -0.175 N 
ATOM     24  C2  QGG d         -40.798 176.348  69.472  0.00  0.00     0.671 C 
ATOM     25  N1  QGG d         -40.921 177.485  70.201  0.00  0.00    -0.235 N 
ATOM     26  N27 QGG d         -41.192 176.267  68.189  0.00  0.00    -0.235 N 
ATOM     27  H1  QGG d         -41.358 178.319  69.784  0.00  0.00     0.174 HD
ATOM     28  H2  QGG d         -40.578 177.514  71.172  0.00  0.00     0.174 HD
ATOM     29  H15 QGG d         -41.633 177.079  67.733  0.00  0.00     0.174 HD
ATOM     30  H16 QGG d         -41.053 175.393  67.662  0.00  0.00     0.174 HD
ATOM     31  H3  QGG d         -40.134 174.472  69.351  0.00  0.00     0.186 HD
ENDBRANCH   1  23
TORSDOF 4
