3b7u_ligand
  -MTS-   04161614043D 0   0.00000     0.00000     0

 21 21  0  0  0  0  0  0  0  0999 V2000
   34.2250    4.1510    3.2940 O   0  0  0  0  0  0  0  0  0  0  0  0
   34.9880    4.2810    2.3510 C   0  0  0  0  0  0  0  0  0  0  0  0
   36.1930    3.7320    2.3050 N   0  0  0  0  0  0  0  0  0  0  0  0
   36.5650    3.1010    3.2900 O   0  0  0  0  0  0  0  0  0  0  0  0
   34.6280    5.1670    1.1870 C   0  0  0  0  0  0  0  0  0  0  0  0
   34.7120    6.6060    1.7070 C   0  0  0  0  0  0  0  0  0  0  0  0
   34.3180    7.5110    0.5820 C   0  0  0  0  0  0  0  0  0  0  0  0
   34.9820    7.5130   -0.4490 O   0  0  0  0  0  0  0  0  0  0  0  0
   33.2310    8.2680    0.7570 N   0  0  0  0  0  0  0  0  0  0  0  0
   32.7620    9.0820   -0.3280 C   0  0  0  0  0  0  0  0  0  0  0  0
   31.4610    9.7930    0.0080 C   0  0  0  0  0  0  0  0  0  0  0  0
   33.8560   10.0410   -0.7530 C   0  0  0  0  0  0  0  0  0  0  0  0
   34.0600   10.2010   -1.9530 O   0  0  0  0  0  0  0  0  0  0  0  0
   34.5630   10.5940    0.0960 O   0  0  0  0  0  0  0  0  0  0  0  0
   36.1550    6.9510    2.1610 C   0  0  0  0  0  0  0  0  0  0  0  0
   36.2490    8.3270    2.8280 C   0  0  0  0  0  0  0  0  0  0  0  0
   36.1310    8.4110    4.2070 C   0  0  0  0  0  0  0  0  0  0  0  0
   36.2230    9.6680    4.8300 C   0  0  0  0  0  0  0  0  0  0  0  0
   36.4050   10.8440    4.1220 C   0  0  0  0  0  0  0  0  0  0  0  0
   36.5470   10.7640    2.7260 C   0  0  0  0  0  0  0  0  0  0  0  0
   36.4720    9.5150    2.0890 C   0  0  0  0  0  0  0  0  0  0  0  0
  1  2  2  0  0  0  0
  2  3  1  0  0  0  0
  2  5  1  0  0  0  0
  3  4  1  0  0  0  0
  5  6  1  0  0  0  0
  6  7  1  0  0  0  0
  6 15  1  0  0  0  0
  7  8  2  0  0  0  0
  7  9  1  0  0  0  0
  9 10  1  0  0  0  0
 10 11  1  0  0  0  0
 10 12  1  0  0  0  0
 12 13  2  0  0  0  0
 12 14  1  0  0  0  0
 15 16  1  0  0  0  0
 16 17  2  0  0  0  0
 16 21  1  0  0  0  0
 17 18  1  0  0  0  0
 18 19  2  0  0  0  0
 19 20  1  0  0  0  0
 20 21  2  0  0  0  0
M  END
$$$$
