REMARK  14 active torsions:
REMARK  status: ('A' for Active; 'I' for Inactive)
REMARK    1  A    between atoms: C6_6  and  C9_9 
REMARK    2  A    between atoms: C9_9  and  C10_10 
REMARK       I    between atoms: C10_10  and  N12_12 
REMARK    3  A    between atoms: C14_14  and  C24_24 
REMARK    4  A    between atoms: C24_24  and  C26_26 
REMARK    5  A    between atoms: C24_24  and  O25_25 
REMARK    6  A    between atoms: C26_26  and  N27_27 
REMARK    7  A    between atoms: C28_28  and  C29_29 
REMARK       I    between atoms: C29_29  and  N34_34 
REMARK    8  A    between atoms: N34_34  and  C35_35 
REMARK    9  A    between atoms: C35_35  and  C38_38 
REMARK   10  A    between atoms: C35_35  and  C36_36 
REMARK       I    between atoms: C36_36  and  N42_42 
REMARK   11  A    between atoms: C38_38  and  C39_39 
REMARK   12  A    between atoms: N42_42  and  C43_43 
REMARK   13  A    between atoms: C43_43  and  C46_46 
REMARK   14  A    between atoms: C43_43  and  C44_44 
REMARK       I    between atoms: C44_44  and  N49_49 
ROOT
ATOM      1  C24 PI1 d           5.154  -0.686  15.597  0.00  0.00     0.167 C 
ENDROOT
BRANCH   1   2
ATOM      2  C14 PI1 d           5.686  -0.361  14.198  0.00  0.00     0.119 C 
ATOM      3  N13 PI1 d           4.849   0.691  13.592  0.00  0.00    -0.352 N 
ATOM      4  C7  PI1 d           4.041   0.462  12.556  0.00  0.00     0.241 C 
ATOM      5  H11 PI1 d           4.889   1.614  13.974  0.00  0.00     0.163 HD
ATOM      6  C6  PI1 d           3.265   1.668  12.045  0.00  0.00     0.185 C 
ATOM      7  O8  PI1 d           3.957  -0.628  11.992  0.00  0.00    -0.271 OA
ATOM      8  N5  PI1 d           3.935   2.139  10.818  0.00  0.00    -0.347 N 
ATOM      9  C2  PI1 d           4.157   3.430  10.590  0.00  0.00     0.218 C 
ATOM     10  H5  PI1 d           4.231   1.468  10.138  0.00  0.00     0.163 HD
ATOM     11  C4  PI1 d           4.897   3.781   9.314  0.00  0.00     0.105 C 
ATOM     12  O3  PI1 d           3.796   4.313  11.374  0.00  0.00    -0.274 OA
ATOM     13  C1  PI1 d           6.098   4.680   9.603  0.00  0.00     0.036 C 
ATOM     14  C23 PI1 d           7.446   4.162   9.012  0.00  0.00     0.176 C 
ATOM     15  O22 PI1 d           7.686   2.786   9.298  0.00  0.00    -0.351 OA
ATOM     16  C21 PI1 d           7.708   2.220  10.575  0.00  0.00     0.068 C 
ATOM     17  C18 PI1 d           7.607   2.955  11.755  0.00  0.00     0.037 C 
ATOM     18  C20 PI1 d           7.734   0.831  10.638  0.00  0.00     0.037 C 
ATOM     19  C17 PI1 d           7.499   2.291  12.985  0.00  0.00     0.010 C 
ATOM     20  C16 PI1 d           7.494   0.896  13.055  0.00  0.00    -0.056 C 
ATOM     21  C15 PI1 d           7.113   0.192  14.326  0.00  0.00     0.066 C 
ATOM     22  C19 PI1 d           7.630   0.179  11.864  0.00  0.00     0.010 C 
BRANCH   6  23
ATOM     23  C9  PI1 d           1.804   1.325  11.771  0.00  0.00     0.137 C 
BRANCH  23  24
ATOM     24  C10 PI1 d           1.045   2.507  11.210  0.00  0.00     0.217 C 
ATOM     25  N12 PI1 d           0.894   2.541   9.893  0.00  0.00    -0.370 N 
ATOM     26  H9  PI1 d           0.401   3.299   9.466  0.00  0.00     0.159 HD
ATOM     27  H10 PI1 d           1.273   1.809   9.327  0.00  0.00     0.159 HD
ATOM     28  O11 PI1 d           0.660   3.416  11.945  0.00  0.00    -0.274 OA
ENDBRANCH  23  24
ENDBRANCH   6  23
ENDBRANCH   1   2
BRANCH   1  29
ATOM     29  C26 PI1 d           3.699  -1.090  15.487  0.00  0.00     0.269 C 
BRANCH  29  30
ATOM     30  N27 PI1 d           3.516  -2.544  15.448  0.00  0.00    -0.056 N 
ATOM     31  C33 PI1 d           2.367  -3.247  14.851  0.00  0.00     0.236 C 
ATOM     32  C32 PI1 d           2.542  -4.666  15.372  0.00  0.00     0.030 C 
ATOM     33  C31 PI1 d           3.160  -4.458  16.716  0.00  0.00     0.045 C 
ATOM     34  C28 PI1 d           4.208  -3.399  16.412  0.00  0.00     0.279 C 
ATOM     35  H25 PI1 d           4.146  -2.684  14.674  0.00  0.00     0.281 HD
BRANCH  34  36
ATOM     36  C29 PI1 d           5.501  -4.060  15.938  0.00  0.00     0.249 C 
ATOM     37  N34 PI1 d           6.267  -4.523  16.915  0.00  0.00    -0.346 N 
ATOM     38  H33 PI1 d           5.985  -4.358  17.860  0.00  0.00     0.163 HD
ATOM     39  O30 PI1 d           5.813  -4.112  14.746  0.00  0.00    -0.271 OA
BRANCH  37  40
ATOM     40  C35 PI1 d           7.505  -5.263  16.677  0.00  0.00     0.180 C 
BRANCH  40  41
ATOM     41  C38 PI1 d           8.783  -4.456  17.016  0.00  0.00     0.013 C 
ATOM     42  C40 PI1 d          10.008  -5.364  16.934  0.00  0.00     0.012 C 
BRANCH  41  43
ATOM     43  C39 PI1 d           8.955  -3.282  16.050  0.00  0.00     0.002 C 
ATOM     44  C41 PI1 d           9.160  -3.698  14.632  0.00  0.00     0.005 C 
ENDBRANCH  41  43
ENDBRANCH  40  41
BRANCH  40  45
ATOM     45  C36 PI1 d           7.357  -6.401  17.669  0.00  0.00     0.241 C 
ATOM     46  N42 PI1 d           7.085  -7.593  17.152  0.00  0.00    -0.346 N 
ATOM     47  H44 PI1 d           6.990  -7.685  16.161  0.00  0.00     0.163 HD
ATOM     48  O37 PI1 d           7.365  -6.176  18.880  0.00  0.00    -0.271 OA
BRANCH  46  49
ATOM     49  C43 PI1 d           6.920  -8.779  18.002  0.00  0.00     0.179 C 
BRANCH  49  50
ATOM     50  C46 PI1 d           5.528  -9.450  17.797  0.00  0.00     0.009 C 
ATOM     51  C48 PI1 d           5.418 -10.087  16.413  0.00  0.00     0.012 C 
ATOM     52  C47 PI1 d           4.417  -8.430  18.007  0.00  0.00     0.012 C 
ENDBRANCH  49  50
BRANCH  49  53
ATOM     53  C44 PI1 d           8.043  -9.786  17.743  0.00  0.00     0.238 C 
ATOM     54  N49 PI1 d           8.630 -10.317  18.816  0.00  0.00    -0.368 N 
ATOM     55  H53 PI1 d           9.370 -10.981  18.704  0.00  0.00     0.159 HD
ATOM     56  H54 PI1 d           8.331 -10.052  19.733  0.00  0.00     0.159 HD
ATOM     57  O45 PI1 d           8.394 -10.063  16.590  0.00  0.00    -0.271 OA
ENDBRANCH  49  53
ENDBRANCH  46  49
ENDBRANCH  40  45
ENDBRANCH  37  40
ENDBRANCH  34  36
ENDBRANCH  29  30
ENDBRANCH   1  29
BRANCH   1  58
ATOM     58  O25 PI1 d           5.248   0.469  16.445  0.00  0.00    -0.392 OA
ATOM     59  H22 PI1 d           6.158   0.731  16.521  0.00  0.00     0.210 HD
ENDBRANCH   1  58
TORSDOF 14
