### 
### Created by X-TOOL on Fri Sep 26 17:34:18 2014
### 

@<TRIPOS>MOLECULE
1hi4_ligand
   38    40     1     0     0
SMALL
GAST_HUCK


@<TRIPOS>ATOM
      1 P1         10.0960   17.7550   12.3850 P.3       1 A3P         0.2013
      2 O1P        10.5140   16.3440   12.6620 O.co2     1 A3P        -0.5537
      3 O2P         9.4380   17.9850   11.0560 O.co2     1 A3P        -0.5537
      4 O3P         9.7920   18.6320   13.5340 O.co2     1 A3P        -0.5537
      5 P2         14.4390   14.6320    9.6390 P.3       1 A3P         0.2008
      6 O4P        15.6900   13.9260   10.0510 O.co2     1 A3P        -0.5537
      7 O5P        13.2800   13.7430    9.3380 O.co2     1 A3P        -0.5537
      8 O6P        14.5180   15.9220    8.9550 O.co2     1 A3P        -0.5537
      9 O5         13.9260   15.1580   11.1170 O.3       1 A3P        -0.2734
     10 C5         14.6380   16.0680   11.9950 C.3       1 A3P         0.1075
     11 C4         13.7740   17.3130   12.3940 C.3       1 A3P         0.1229
     12 O4         14.7050   18.4580   12.4880 O.3       1 A3P        -0.3361
     13 C3         12.6980   17.7600   11.3500 C.3       1 A3P         0.1487
     14 O3         11.5320   18.3890   12.0040 O.3       1 A3P        -0.2674
     15 C2         13.4860   18.7190   10.4930 C.3       1 A3P         0.1432
     16 O2         12.7340   19.5170    9.5820 O.3       1 A3P        -0.3832
     17 C1         14.2460   19.5000   11.5870 C.3       1 A3P         0.2013
     18 N9         15.3870   20.3150   11.0430 N.pl3     1 A3P        -0.1919
     19 C8         15.5640   20.8240    9.7590 C.2       1 A3P         0.1123
     20 N7         16.6740   21.5130    9.5740 N.2       1 A3P        -0.2958
     21 C5         17.3000   21.4780   10.8110 C.ar      1 A3P         0.1045
     22 C6         18.5420   22.0350   11.2950 C.ar      1 A3P         0.1298
     23 N6         19.3540   22.7430   10.5240 N.pl3     1 A3P        -0.3152
     24 N1         18.8970   21.8150   12.6350 N.ar      1 A3P        -0.2698
     25 C2         18.0650   21.0780   13.4610 C.ar      1 A3P         0.0533
     26 N3         16.8540   20.4930   13.1120 N.ar      1 A3P        -0.2714
     27 C4         16.5270   20.7350   11.7620 C.ar      1 A3P         0.1613
     28 H1         15.5450   16.4180   11.4804 H         1 A3P         0.0639
     29 H2         14.9211   15.5269   12.9099 H         1 A3P         0.0639
     30 H3         13.2851   17.1154   13.3594 H         1 A3P         0.0654
     31 H4         12.3487   16.9042   10.7537 H         1 A3P         0.0704
     32 H5         14.2052   18.1517    9.8840 H         1 A3P         0.0680
     33 H6         13.3237   20.0812    9.0956 H         1 A3P         0.2101
     34 H7         13.5567   20.1782   12.1112 H         1 A3P         0.0996
     35 H8         14.8375   20.6646    8.9636 H         1 A3P         0.1349
     36 H9         20.2305   23.1220   10.9102 H         1 A3P         0.1820
     37 H10        19.1089   22.9145    9.5384 H         1 A3P         0.1820
     38 H11        18.3923   20.9436   14.4856 H         1 A3P         0.0996
@<TRIPOS>BOND
     1    1    2 ar 
     2    1    3 ar 
     3    1    4 ar 
     4   14    1 1  
     5    5    6 ar 
     6    5    7 ar 
     7    5    8 ar 
     8    9    5 1  
     9   10    9 1  
    10   11   10 1  
    11   11   12 1  
    12   13   11 1  
    13   12   17 1  
    14   13   14 1  
    15   13   15 1  
    16   15   16 1  
    17   15   17 1  
    18   17   18 1  
    19   18   19 1  
    20   18   27 1  
    21   19   20 2  
    22   20   21 1  
    23   21   22 ar 
    24   21   27 ar 
    25   22   23 1  
    26   22   24 ar 
    27   24   25 ar 
    28   25   26 ar 
    29   26   27 ar 
    30   10   28 1  
    31   10   29 1  
    32   11   30 1  
    33   13   31 1  
    34   15   32 1  
    35   16   33 1  
    36   17   34 1  
    37   19   35 1  
    38   23   36 1  
    39   23   37 1  
    40   25   38 1  
@<TRIPOS>SUBSTRUCTURE
     1 A3P         1

