### 
### Created by X-TOOL on Fri Sep 26 17:34:44 2014
### 

@<TRIPOS>MOLECULE
3i9g_ligand
   62    61     1     0     0
SMALL
GAST_HUCK


@<TRIPOS>ATOM
      1 C1          1.1760   14.7560   38.5570 C.3       1 S1P         0.1248
      2 O1          2.5760   15.0240   38.4680 O.3       1 S1P        -0.2702
      3 C2          0.6880   14.3200   37.1820 C.3       1 S1P         0.0369
      4 N2          1.3870   13.0990   36.7580 N.4       1 S1P         0.2258
      5 C3          0.9260   15.4380   36.1540 C.3       1 S1P         0.1175
      6 O3          0.0420   16.5200   36.4520 O.3       1 S1P        -0.3772
      7 C4          0.6190   14.9580   34.7490 C.2       1 S1P        -0.0651
      8 C5          1.5760   15.0020   33.8280 C.2       1 S1P        -0.0961
      9 C6          1.2970   14.5280   32.4220 C.3       1 S1P        -0.0364
     10 C7          1.7270   15.6480   31.4700 C.3       1 S1P        -0.0464
     11 C8          0.5170   16.1000   30.6910 C.3       1 S1P        -0.0515
     12 C9         -0.2110   17.3160   31.2030 C.3       1 S1P        -0.0529
     13 C10        -0.6850   18.0290   29.9490 C.3       1 S1P        -0.0531
     14 C11        -2.1900   17.9870   29.6930 C.3       1 S1P        -0.0531
     15 C12        -2.4610   18.5280   28.2870 C.3       1 S1P        -0.0531
     16 C13        -3.4740   19.6620   28.3910 C.3       1 S1P        -0.0531
     17 C14        -3.5330   20.6290   27.1900 C.3       1 S1P        -0.0531
     18 C15        -2.7350   21.9200   27.4140 C.3       1 S1P        -0.0531
     19 C16        -3.1600   22.7410   28.6320 C.3       1 S1P        -0.0533
     20 C17        -2.2580   23.9510   28.7960 C.3       1 S1P        -0.0559
     21 C18        -2.8160   24.9620   29.7800 C.3       1 S1P        -0.0653
     22 P22         3.6270   14.2890   39.4550 P.3       1 S1P         0.2010
     23 O23         3.0530   14.3370   40.8090 O.co2     1 S1P        -0.5537
     24 O24         4.8970   15.0190   39.1860 O.co2     1 S1P        -0.5537
     25 O25         3.7750   12.8800   38.8880 O.co2     1 S1P        -0.5537
     26 H1          0.6418   15.6649   38.8710 H         1 S1P         0.0672
     27 H2          0.9959   13.9539   39.2879 H         1 S1P         0.0672
     28 H3         -0.3906   14.1117   37.2383 H         1 S1P         0.0923
     29 H4          1.0555   12.8210   35.8476 H         1 S1P         0.2000
     30 H5          1.2068   12.3613   37.4208 H         1 S1P         0.2000
     31 H6          2.3782   13.2771   36.7147 H         1 S1P         0.2000
     32 H7          1.9716   15.7748   36.2104 H         1 S1P         0.0776
     33 H8          0.1773   17.2201   35.8242 H         1 S1P         0.2129
     34 H9         -0.3719   14.5824   34.4981 H         1 S1P         0.0477
     35 H10         2.5634   15.3807   34.0879 H         1 S1P         0.0451
     36 H11         0.2233   14.3221   32.3003 H         1 S1P         0.0388
     37 H12         1.8718   13.6140   32.2118 H         1 S1P         0.0388
     38 H13         2.4957   15.2731   30.7782 H         1 S1P         0.0285
     39 H14         2.1334   16.4913   32.0477 H         1 S1P         0.0285
     40 H15        -0.1996   15.2656   30.6773 H         1 S1P         0.0267
     41 H16         0.8458   16.3180   29.6642 H         1 S1P         0.0267
     42 H17         0.4664   17.9592   31.7838 H         1 S1P         0.0265
     43 H18        -1.0656   17.0225   31.8303 H         1 S1P         0.0265
     44 H19        -0.1824   17.5666   29.0867 H         1 S1P         0.0265
     45 H20        -0.3845   19.0843   30.0260 H         1 S1P         0.0265
     46 H21        -2.7099   18.6094   30.4362 H         1 S1P         0.0265
     47 H22        -2.5498   16.9501   29.7669 H         1 S1P         0.0265
     48 H23        -2.8662   17.7259   27.6527 H         1 S1P         0.0265
     49 H24        -1.5256   18.9054   27.8482 H         1 S1P         0.0265
     50 H25        -3.2279   20.2520   29.2862 H         1 S1P         0.0265
     51 H26        -4.4709   19.2128   28.5105 H         1 S1P         0.0265
     52 H27        -4.5844   20.8953   27.0068 H         1 S1P         0.0265
     53 H28        -3.1257   20.1150   26.3069 H         1 S1P         0.0265
     54 H29        -2.8498   22.5512   26.5205 H         1 S1P         0.0265
     55 H30        -1.6761   21.6492   27.5381 H         1 S1P         0.0265
     56 H31        -3.0925   22.1139   29.5332 H         1 S1P         0.0265
     57 H32        -4.1982   23.0786   28.4971 H         1 S1P         0.0265
     58 H33        -2.1408   24.4390   27.8172 H         1 S1P         0.0263
     59 H34        -1.2756   23.6125   29.1570 H         1 S1P         0.0263
     60 H35        -2.1259   25.8148   29.8604 H         1 S1P         0.0230
     61 H36        -2.9307   24.4889   30.7664 H         1 S1P         0.0230
     62 H37        -3.7959   25.3154   29.4266 H         1 S1P         0.0230
@<TRIPOS>BOND
     1    1    2 1  
     2    1    3 1  
     3    2   22 1  
     4    3    4 1  
     5    3    5 1  
     6    5    6 1  
     7    5    7 1  
     8    7    8 2  
     9    8    9 1  
    10    9   10 1  
    11   10   11 1  
    12   11   12 1  
    13   12   13 1  
    14   13   14 1  
    15   14   15 1  
    16   15   16 1  
    17   16   17 1  
    18   17   18 1  
    19   18   19 1  
    20   19   20 1  
    21   20   21 1  
    22   22   23 ar 
    23   22   24 ar 
    24   22   25 ar 
    25    1   26 1  
    26    1   27 1  
    27    3   28 1  
    28    4   29 1  
    29    4   30 1  
    30    4   31 1  
    31    5   32 1  
    32    6   33 1  
    33    7   34 1  
    34    8   35 1  
    35    9   36 1  
    36    9   37 1  
    37   10   38 1  
    38   10   39 1  
    39   11   40 1  
    40   11   41 1  
    41   12   42 1  
    42   12   43 1  
    43   13   44 1  
    44   13   45 1  
    45   14   46 1  
    46   14   47 1  
    47   15   48 1  
    48   15   49 1  
    49   16   50 1  
    50   16   51 1  
    51   17   52 1  
    52   17   53 1  
    53   18   54 1  
    54   18   55 1  
    55   19   56 1  
    56   19   57 1  
    57   20   58 1  
    58   20   59 1  
    59   21   60 1  
    60   21   61 1  
    61   21   62 1  
@<TRIPOS>SUBSTRUCTURE
     1 S1P         1

