### 
### Created by X-TOOL on Sun Nov 13 14:29:02 2016
### 

@<TRIPOS>MOLECULE
4rhx_ligand
   57    58     1     0     0
SMALL
GAST_HUCK


@<TRIPOS>ATOM
      1 OAF        -3.4260    7.6880  124.3960 O.co2     1 MOL        -0.5621
      2 PBE        -4.1380    7.2190  123.1640 P.3       1 MOL         0.0628
      3 OAG        -3.8360    5.7620  122.9330 O.co2     1 MOL        -0.5621
      4 OAC        -5.6130    7.4050  123.3410 O.co2     1 MOL        -0.5621
      5 CAS        -3.5740    8.2230  121.7060 C.3       1 MOL         0.0596
      6 CAP        -3.9470    9.7430  121.9230 C.3       1 MOL        -0.0146
      7 NBB        -3.1430   10.6390  121.0550 N.4       1 MOL         0.2561
      8 CAL        -3.0980   10.1000  119.6630 C.3       1 MOL         0.0397
      9 CAK        -4.4330   10.3710  118.9460 C.2       1 MOL         0.1437
     10 OAE        -5.3300    9.4990  118.9430 O.2       1 MOL        -0.3693
     11 CAM        -3.7500   11.9650  121.0700 C.3       1 MOL         0.0111
     12 CAN        -3.5520   12.5980  122.4850 C.3       1 MOL         0.0094
     13 NBC        -4.7010   13.4190  122.8740 N.4       1 MOL         0.2419
     14 CAQ        -4.5330   14.7310  122.3740 C.3       1 MOL        -0.0163
     15 CAT        -5.8770   15.3510  122.0520 C.3       1 MOL         0.0596
     16 PBF        -5.7170   17.0350  121.2580 P.3       1 MOL         0.0628
     17 OAH        -5.2720   16.8640  119.8310 O.co2     1 MOL        -0.5621
     18 OAI        -7.0640   17.7400  121.2940 O.co2     1 MOL        -0.5621
     19 OAD        -4.6950   17.8680  121.9950 O.co2     1 MOL        -0.5621
     20 CAO        -4.7770   13.4530  124.3410 C.3       1 MOL        -0.0033
     21 CAR        -3.6050   14.2780  124.9360 C.3       1 MOL         0.0981
     22 N9         -3.9520   14.7350  126.3150 N.pl3     1 MOL        -0.2340
     23 C4         -3.9860   13.9550  127.4320 C.2       1 MOL         0.1136
     24 N3         -3.7450   12.6280  127.7230 N.2       1 MOL        -0.2765
     25 C2         -3.8620   12.1540  128.9460 C.2       1 MOL         0.2340
     26 N2         -3.6030   10.7790  129.1860 N.pl3     1 MOL        -0.2807
     27 N1         -4.2310   12.9510  130.0020 N.am      1 MOL        -0.1839
     28 C6         -4.4860   14.2400  129.8360 C.2       1 MOL         0.2135
     29 O6         -4.8640   15.0490  130.9260 O.2       1 MOL        -0.4091
     30 C5         -4.3640   14.7970  128.4930 C.2       1 MOL         0.0925
     31 N7         -4.5400   16.0460  127.9470 N.2       1 MOL        -0.3236
     32 C8         -4.2930   16.0000  126.6530 C.2       1 MOL         0.0934
     33 H1         -4.0676    7.8528  120.7954 H         1 MOL         0.0504
     34 H2         -2.4836    8.1271  121.5969 H         1 MOL         0.0504
     35 H3         -3.7632   10.0078  122.9747 H         1 MOL         0.0829
     36 H4         -5.0127    9.8845  121.6901 H         1 MOL         0.0829
     37 H5         -2.2032   10.6985  121.4145 H         1 MOL         0.2056
     38 H6         -2.9181    9.0154  119.6987 H         1 MOL         0.1054
     39 H7         -2.2825   10.5889  119.1099 H         1 MOL         0.1054
     40 H8         -4.5966   11.3220  118.4413 H         1 MOL         0.1406
     41 H9         -4.8246   11.8814  120.8503 H         1 MOL         0.0868
     42 H10        -3.2689   12.5997  120.3113 H         1 MOL         0.0868
     43 H11        -2.6510   13.2288  122.4710 H         1 MOL         0.0868
     44 H12        -3.4236   11.7916  123.2220 H         1 MOL         0.0868
     45 H13        -5.5475   13.0208  122.4987 H         1 MOL         0.2037
     46 H14        -3.9225   14.6948  121.4597 H         1 MOL         0.0828
     47 H15        -4.0232   15.3447  123.1313 H         1 MOL         0.0828
     48 H16        -6.4505   15.4541  122.9850 H         1 MOL         0.0504
     49 H17        -6.4162   14.6855  121.3618 H         1 MOL         0.0504
     50 H18        -4.7269   12.4247  124.7284 H         1 MOL         0.0842
     51 H19        -5.7302   13.9122  124.6419 H         1 MOL         0.0842
     52 H20        -3.4155   15.1542  124.2986 H         1 MOL         0.0669
     53 H21        -2.7017   13.6515  124.9762 H         1 MOL         0.0669
     54 H22        -3.3250   10.1639  128.4080 H         1 MOL         0.1897
     55 H23        -3.6931   10.3965  130.1381 H         1 MOL         0.1897
     56 H24        -4.3087   12.5499  130.9147 H         1 MOL         0.2515
     57 H25        -4.3536   16.8436  125.9670 H         1 MOL         0.1178
@<TRIPOS>BOND
     1    1    2 ar 
     2    2    3 ar 
     3    2    4 ar 
     4    2    5 1  
     5    5    6 1  
     6    6    7 1  
     7    7    8 1  
     8    7   11 1  
     9    8    9 1  
    10    9   10 2  
    11   11   12 1  
    12   12   13 1  
    13   13   14 1  
    14   13   20 1  
    15   14   15 1  
    16   15   16 1  
    17   16   17 ar 
    18   16   18 ar 
    19   16   19 ar 
    20   20   21 1  
    21   21   22 1  
    22   22   23 1  
    23   22   32 1  
    24   23   24 1  
    25   23   30 2  
    26   24   25 2  
    27   25   26 1  
    28   25   27 am 
    29   27   28 am 
    30   28   29 2  
    31   28   30 1  
    32   30   31 1  
    33   31   32 2  
    34    5   33 1  
    35    5   34 1  
    36    6   35 1  
    37    6   36 1  
    38    7   37 1  
    39    8   38 1  
    40    8   39 1  
    41    9   40 1  
    42   11   41 1  
    43   11   42 1  
    44   12   43 1  
    45   12   44 1  
    46   13   45 1  
    47   14   46 1  
    48   14   47 1  
    49   15   48 1  
    50   15   49 1  
    51   20   50 1  
    52   20   51 1  
    53   21   52 1  
    54   21   53 1  
    55   26   54 1  
    56   26   55 1  
    57   27   56 1  
    58   32   57 1  
@<TRIPOS>SUBSTRUCTURE
     1 MOL         1

