### 
### Created by X-TOOL on Fri Sep 26 17:34:12 2014
### 

@<TRIPOS>MOLECULE
1dud_ligand
   35    36     1     0     0
SMALL
GAST_HUCK


@<TRIPOS>ATOM
      1 N1         -5.3450   37.0560   33.0000 N.am      1 DUD        -0.1618
      2 C2         -4.2650   36.3950   32.4540 C.2       1 DUD         0.3327
      3 N3         -3.4110   37.1320   31.7020 N.am      1 DUD        -0.1865
      4 C4         -3.5560   38.4800   31.4050 C.2       1 DUD         0.1822
      5 C5         -4.6860   39.0980   32.0090 C.2       1 DUD         0.0062
      6 C6         -5.5340   38.3970   32.7830 C.2       1 DUD         0.0590
      7 O2         -4.0260   35.1870   32.6250 O.2       1 DUD        -0.3815
      8 O4         -2.6970   39.0530   30.7450 O.2       1 DUD        -0.4124
      9 C1'        -6.3230   36.2960   33.8620 C.3       1 DUD         0.1800
     10 C2'        -6.4360   36.8710   35.2620 C.3       1 DUD         0.0316
     11 C3'        -7.7800   37.5500   35.3380 C.3       1 DUD         0.0890
     12 C4'        -8.6160   36.8480   34.2660 C.3       1 DUD         0.1163
     13 O4'        -7.6520   36.3970   33.2700 O.3       1 DUD        -0.3387
     14 O3'        -8.3520   37.3170   36.6090 O.3       1 DUD        -0.3890
     15 C5'        -9.6260   37.8250   33.6480 C.3       1 DUD         0.1131
     16 O5'        -8.9810   39.0360   33.1330 O.3       1 DUD        -0.2436
     17 PA         -9.6540   40.5010   32.9690 P.3       1 DUD         0.3276
     18 O1A       -10.7200   40.6150   33.9840 O.co2     1 DUD        -0.5556
     19 O2A        -8.6160   41.5830   32.8710 O.co2     1 DUD        -0.5556
     20 O3A       -10.4620   40.5340   31.5670 O.3       1 DUD        -0.1548
     21 PB        -11.7520   39.7940   30.9000 P.3       1 DUD         0.2069
     22 O1B       -11.4910   38.3390   30.7070 O.co2     1 DUD        -0.5891
     23 O2B       -12.0480   40.6250   29.7090 O.co2     1 DUD        -0.5891
     24 O3B       -13.0120   40.0010   31.9780 O.co2     1 DUD        -0.5891
     25 H1         -2.6089   36.6650   31.3299 H         1 DUD         0.2259
     26 H2         -4.8680   40.1586   31.8416 H         1 DUD         0.0258
     27 H3         -6.3822   38.9012   33.2436 H         1 DUD         0.1178
     28 H4         -6.0089   35.2434   33.9199 H         1 DUD         0.0970
     29 H5         -5.6314   37.5997   35.4397 H         1 DUD         0.0345
     30 H6         -6.3738   36.0665   36.0096 H         1 DUD         0.0345
     31 H7         -7.6989   38.6297   35.1441 H         1 DUD         0.0622
     32 H8         -9.1540   35.9904   34.6961 H         1 DUD         0.0650
     33 H9         -9.1989   37.7448   36.6571 H         1 DUD         0.2099
     34 H10       -10.3569   38.1131   34.4179 H         1 DUD         0.0648
     35 H11       -10.1454   37.3208   32.8198 H         1 DUD         0.0648
@<TRIPOS>BOND
     1    1    9 am 
     2    1    6 1  
     3    1    2 am 
     4    2    7 2  
     5    2    3 am 
     6    3    4 am 
     7    4    8 2  
     8    4    5 1  
     9    5    6 2  
    10    9   13 1  
    11    9   10 1  
    12   10   11 1  
    13   11   14 1  
    14   11   12 1  
    15   12   15 1  
    16   12   13 1  
    17   15   16 1  
    18   16   17 1  
    19   17   20 1  
    20   17   19 ar 
    21   17   18 ar 
    22   20   21 1  
    23   21   24 ar 
    24   21   23 ar 
    25   21   22 ar 
    26    3   25 1  
    27    5   26 1  
    28    6   27 1  
    29    9   28 1  
    30   10   29 1  
    31   10   30 1  
    32   11   31 1  
    33   12   32 1  
    34   14   33 1  
    35   15   34 1  
    36   15   35 1  
@<TRIPOS>SUBSTRUCTURE
     1 DUD         1

