### 
### Created by X-TOOL on Fri Sep 26 17:34:47 2014
### 

@<TRIPOS>MOLECULE
3moh_ligand
   11    10     1     0     0
SMALL
GAST_HUCK


@<TRIPOS>ATOM
      1 P          21.3040    3.0830    3.8540 P.3       1 PGA         0.2032
      2 O1P        22.3850    4.1550    3.3010 O.3       1 PGA        -0.2622
      3 O2P        20.2350    3.8950    4.5700 O.co2     1 PGA        -0.5536
      4 O3P        22.0490    2.1700    4.7990 O.co2     1 PGA        -0.5536
      5 O4P        20.5980    2.3940    2.6940 O.co2     1 PGA        -0.5536
      6 C2         21.9540    5.2020    2.4650 C.3       1 PGA         0.1305
      7 C1         22.9050    5.3420    1.3030 C.2       1 PGA         0.0653
      8 O1         22.8420    6.3930    0.6380 O.co2     1 PGA        -0.5663
      9 O2         23.7240    4.4300    0.9790 O.co2     1 PGA        -0.5663
     10 H1         21.9322    6.1419    3.0361 H         1 PGA         0.0783
     11 H2         20.9451    4.9785    2.0880 H         1 PGA         0.0783
@<TRIPOS>BOND
     1    1    2 1  
     2    1    3 ar 
     3    1    4 ar 
     4    1    5 ar 
     5    2    6 1  
     6    6    7 1  
     7    7    8 ar 
     8    7    9 ar 
     9    6   10 1  
    10    6   11 1  
@<TRIPOS>SUBSTRUCTURE
     1 PGA         1

