### 
### Created by X-TOOL on Fri Sep 26 17:34:52 2014
### 

@<TRIPOS>MOLECULE
3ocp_ligand
   33    36     1     0     0
SMALL
GAST_HUCK


@<TRIPOS>ATOM
      1 P          -3.0200   33.7660   27.3530 P.3       1 CMP         0.2557
      2 O1P        -1.8590   32.8890   27.5550 O.co2     1 CMP        -0.6177
      3 O2P        -4.3880   33.0150   26.8450 O.co2     1 CMP        -0.6177
      4 O5'        -3.4280   34.4910   28.6750 O.3       1 CMP        -0.2514
      5 C5'        -2.4370   35.4280   29.0830 C.3       1 CMP         0.1128
      6 C4'        -2.2180   36.3760   27.9470 C.3       1 CMP         0.1242
      7 O4'        -1.1850   37.3520   28.1860 O.3       1 CMP        -0.3360
      8 C3'        -1.7470   35.7220   26.6780 C.3       1 CMP         0.1540
      9 O3'        -2.7460   34.8610   26.1650 O.3       1 CMP        -0.2453
     10 C2'        -1.4250   36.9540   25.8490 C.3       1 CMP         0.1439
     11 O2'        -2.6120   37.5830   25.3770 O.3       1 CMP        -0.3832
     12 C1'        -0.7650   37.8350   26.9200 C.3       1 CMP         0.2014
     13 N9          0.7060   37.7210   26.8720 N.pl3     1 CMP        -0.1919
     14 C8          1.4260   36.6770   27.2750 C.2       1 CMP         0.1123
     15 N7          2.7530   36.9720   27.0750 N.2       1 CMP        -0.2958
     16 C5          2.8230   38.2290   26.5330 C.ar      1 CMP         0.1045
     17 C6          3.9530   39.0560   26.1190 C.ar      1 CMP         0.1298
     18 N6          5.3010   38.5520   26.2710 N.pl3     1 CMP        -0.3152
     19 N1          3.7500   40.2500   25.6160 N.ar      1 CMP        -0.2698
     20 C2          2.4610   40.7270   25.4840 C.ar      1 CMP         0.0533
     21 N3          1.3720   39.9340   25.8870 N.ar      1 CMP        -0.2714
     22 C4          1.5860   38.7010   26.4050 C.ar      1 CMP         0.1613
     23 H1         -1.4996   34.9036   29.3202 H         1 CMP         0.0647
     24 H2         -2.7836   35.9787   29.9699 H         1 CMP         0.0647
     25 H3         -3.1734   36.8891   27.7629 H         1 CMP         0.0655
     26 H4         -0.8358   35.1291   26.8455 H         1 CMP         0.0712
     27 H5         -0.7498   36.7286   25.0103 H         1 CMP         0.0680
     28 H6         -3.0990   36.9724   24.8362 H         1 CMP         0.2101
     29 H7         -1.0663   38.8840   26.7826 H         1 CMP         0.0996
     30 H8          1.0323   35.7507   27.6907 H         1 CMP         0.1349
     31 H9          6.1027   39.1300   25.9810 H         1 CMP         0.1820
     32 H10         5.4587   37.6152   26.6691 H         1 CMP         0.1820
     33 H11         2.2884   41.7136   25.0694 H         1 CMP         0.0996
@<TRIPOS>BOND
     1    1    2 ar 
     2    1    3 ar 
     3    1    4 1  
     4    1    9 1  
     5    4    5 1  
     6    5    6 1  
     7    6    7 1  
     8    6    8 1  
     9    7   12 1  
    10    8    9 1  
    11    8   10 1  
    12   10   11 1  
    13   10   12 1  
    14   12   13 1  
    15   13   14 1  
    16   13   22 1  
    17   14   15 2  
    18   15   16 1  
    19   16   17 ar 
    20   16   22 ar 
    21   17   18 1  
    22   17   19 ar 
    23   19   20 ar 
    24   20   21 ar 
    25   21   22 ar 
    26    5   23 1  
    27    5   24 1  
    28    6   25 1  
    29    8   26 1  
    30   10   27 1  
    31   11   28 1  
    32   12   29 1  
    33   14   30 1  
    34   18   31 1  
    35   18   32 1  
    36   20   33 1  
@<TRIPOS>SUBSTRUCTURE
     1 CMP         1

