### 
### Created by X-TOOL on Fri Sep 26 17:34:18 2014
### 

@<TRIPOS>MOLECULE
1hyo_ligand
   18    17     1     0     0
SMALL
GAST_HUCK


@<TRIPOS>ATOM
      1 O1         47.4330   44.7450   61.8840 O.co2     1 HBU        -0.5660
      2 C2         47.6030   43.5510   62.1160 C.2       1 HBU         0.0530
      3 O3         47.1170   43.1040   63.1270 O.co2     1 HBU        -0.5660
      4 C4         48.3800   42.7230   61.1120 C.3       1 HBU         0.0751
      5 C5         47.9740   42.9670   59.6700 C.2       1 HBU         0.1353
      6 O8         48.0730   43.9910   59.0670 O.2       1 HBU        -0.3875
      7 C9         47.3170   41.8060   58.9220 C.3       1 HBU         0.0874
      8 P10        45.4820   42.0780   58.9770 P.3       1 HBU        -0.0006
      9 O13        45.1150   43.0380   57.9080 O.co2     1 HBU        -0.6176
     10 O14        45.1120   42.5280   60.3260 O.co2     1 HBU        -0.6176
     11 C15        44.8680   40.5860   58.7290 C.3       1 HBU         0.0041
     12 H1         48.2197   41.6593   61.3419 H         1 HBU         0.0658
     13 H2         49.4482   42.9639   61.2168 H         1 HBU         0.0658
     14 H3         47.5706   40.8531   59.4095 H         1 HBU         0.0699
     15 H4         47.6632   41.7874   57.8781 H         1 HBU         0.0699
     16 H5         43.7692   40.6348   58.7427 H         1 HBU         0.0430
     17 H6         45.2149   39.9098   59.5243 H         1 HBU         0.0430
     18 H7         45.2060   40.2080   57.7529 H         1 HBU         0.0430
@<TRIPOS>BOND
     1    2    1 ar 
     2    2    4 1  
     3    2    3 ar 
     4    4    5 1  
     5    5    7 1  
     6    5    6 2  
     7    7    8 1  
     8    8   11 1  
     9    8   10 ar 
    10    8    9 ar 
    11    4   12 1  
    12    4   13 1  
    13    7   14 1  
    14    7   15 1  
    15   11   16 1  
    16   11   17 1  
    17   11   18 1  
@<TRIPOS>SUBSTRUCTURE
     1 HBU         1

