REMARK  2 active torsions:
REMARK  status: ('A' for Active; 'I' for Inactive)
REMARK    1  A    between atoms: C4_8  and  C9_9 
REMARK    2  A    between atoms: C2_16  and  N_18 
ROOT
ATOM      1  O   MOL d          22.183  49.013  -0.232  0.00  0.00    -0.287 OA
ATOM      2  C   MOL d          23.167  49.702  -0.525  0.00  0.00     0.189 A 
ATOM      3  C8  MOL d          24.484  49.479   0.104  0.00  0.00     0.049 A 
ATOM      4  C7  MOL d          24.671  48.504   1.085  0.00  0.00     0.018 A 
ATOM      5  C6  MOL d          25.923  48.312   1.650  0.00  0.00     0.002 A 
ATOM      6  C5  MOL d          27.004  49.078   1.245  0.00  0.00     0.015 A 
ATOM      7  C3  MOL d          25.581  50.249  -0.290  0.00  0.00     0.103 A 
ATOM      8  C4  MOL d          26.853  50.053   0.263  0.00  0.00     0.009 A 
ATOM      9  O1  MOL d          25.456  51.223  -1.257  0.00  0.00    -0.292 OA
ATOM     10  C2  MOL d          24.224  51.434  -1.854  0.00  0.00     0.150 A 
ATOM     11  C1  MOL d          23.089  50.737  -1.525  0.00  0.00     0.112 A 
ENDROOT
BRANCH  10  12
ATOM     12  N   MOL d          24.373  52.409  -2.862  0.00  0.00    -0.358 N 
ATOM     13  C18 MOL d          25.617  53.181  -2.898  0.00  0.00     0.152 C 
ATOM     14  C17 MOL d          26.192  53.090  -4.287  0.00  0.00     0.252 C 
ATOM     15  N1  MOL d          25.165  53.361  -5.309  0.00  0.00    -0.072 N 
ATOM     16  C16 MOL d          24.029  52.431  -5.233  0.00  0.00     0.252 C 
ATOM     17  H   MOL d          25.588  53.280  -6.220  0.00  0.00     0.277 HD
ATOM     18  H   MOL d          24.822  54.300  -5.180  0.00  0.00     0.277 HD
ATOM     19  C15 MOL d          23.337  52.499  -3.894  0.00  0.00     0.152 C 
ENDBRANCH  10  12
BRANCH   8  20
ATOM     20  C9  MOL d          28.051  50.816  -0.193  0.00  0.00    -0.023 A 
ATOM     21  C14 MOL d          28.919  51.400   0.727  0.00  0.00     0.012 A 
ATOM     22  C13 MOL d          30.032  52.106   0.300  0.00  0.00     0.001 A 
ATOM     23  C12 MOL d          30.295  52.242  -1.043  0.00  0.00     0.000 A 
ATOM     24  C11 MOL d          29.450  51.669  -1.967  0.00  0.00     0.001 A 
ATOM     25  C10 MOL d          28.337  50.959  -1.549  0.00  0.00     0.012 A 
ENDBRANCH   8  20
TORSDOF 2
