### 
### Created by X-TOOL on Fri Sep 26 17:34:33 2014
### 

@<TRIPOS>MOLECULE
1zc9_ligand
   28    28     1     0     0
SMALL
GAST_HUCK


@<TRIPOS>ATOM
      1 N1         17.1240   52.9180   13.7800 N.ar      1 PMP        -0.3257
      2 C2         16.0010   53.1890   14.5470 C.ar      1 PMP         0.0391
      3 C2A        14.9270   54.1310   13.9730 C.3       1 PMP        -0.0224
      4 C3         15.9560   52.5580   15.8330 C.ar      1 PMP         0.1167
      5 O3         14.8710   52.8170   16.5890 O.3       1 PMP        -0.3347
      6 C4         16.9930   51.7190   16.2850 C.ar      1 PMP         0.0475
      7 C4A        16.8920   51.1130   17.6130 C.3       1 PMP        -0.0003
      8 N4A        15.9010   50.2490   17.7330 N.4       1 PMP         0.2298
      9 C5         18.1100   51.5050   15.3980 C.ar      1 PMP         0.0057
     10 C6         18.1770   52.0930   14.1570 C.ar      1 PMP        -0.0130
     11 C5A        19.3130   50.5770   15.7990 C.3       1 PMP         0.1105
     12 O4P        19.0220   49.2060   15.6340 O.3       1 PMP        -0.2651
     13 P          19.9460   48.1540   16.4000 P.3       1 PMP         0.2035
     14 O1P        19.3970   46.8460   16.0150 O.co2     1 PMP        -0.5536
     15 O2P        21.3840   48.2490   15.9300 O.co2     1 PMP        -0.5536
     16 O3P        19.8240   48.4070   17.8060 O.co2     1 PMP        -0.5536
     17 H1         14.1089   54.2405   14.7001 H         1 PMP         0.0382
     18 H2         14.5317   53.7093   13.0371 H         1 PMP         0.0382
     19 H3         15.3730   55.1162   13.7718 H         1 PMP         0.0382
     20 H4         14.9431   52.3520   17.4143 H         1 PMP         0.2454
     21 H5         16.7423   51.9161   18.3497 H         1 PMP         0.0962
     22 H6         17.8355   50.5897   17.8276 H         1 PMP         0.0962
     23 H7         15.8934   49.8744   18.6688 H         1 PMP         0.2006
     24 H8         16.0274   49.4988   17.0718 H         1 PMP         0.2006
     25 H9         15.0256   50.7142   17.5502 H         1 PMP         0.2006
     26 H10        19.0195   51.9196   13.4973 H         1 PMP         0.0621
     27 H11        19.5613   50.7594   16.8550 H         1 PMP         0.0762
     28 H12        20.1785   50.8312   15.1696 H         1 PMP         0.0762
@<TRIPOS>BOND
     1    1    2 ar 
     2    1   10 ar 
     3    2    3 1  
     4    2    4 ar 
     5    4    5 1  
     6    4    6 ar 
     7    6    7 1  
     8    6    9 ar 
     9    7    8 1  
    10    9   10 ar 
    11    9   11 1  
    12   11   12 1  
    13   12   13 1  
    14   13   14 ar 
    15   13   15 ar 
    16   13   16 ar 
    17    3   17 1  
    18    3   18 1  
    19    3   19 1  
    20    5   20 1  
    21    7   21 1  
    22    7   22 1  
    23    8   23 1  
    24    8   24 1  
    25    8   25 1  
    26   10   26 1  
    27   11   27 1  
    28   11   28 1  
@<TRIPOS>SUBSTRUCTURE
     1 PMP         1

