### 
### Created by X-TOOL on Fri Sep 26 17:34:29 2014
### 

@<TRIPOS>MOLECULE
1wur_ligand
   43    45     1     0     0
SMALL
GAST_HUCK


@<TRIPOS>ATOM
      1 PG        -29.4920  -16.5820    1.3050 P.3       1 MOL         0.1879
      2 O1G       -30.0130  -16.4570   -0.0940 O.co2     1 MOL        -0.6091
      3 O2G       -29.7000  -15.3360    2.1170 O.co2     1 MOL        -0.6091
      4 O3G       -28.0020  -16.9300    1.2700 O.co2     1 MOL        -0.6091
      5 O3B       -30.3050  -17.7520    2.0430 O.3       1 MOL        -0.1546
      6 PB        -30.8640  -19.1470    1.4490 P.3       1 MOL         0.3553
      7 O1B       -29.8390  -19.7860    0.6020 O.co2     1 MOL        -0.5652
      8 O2B       -32.1360  -18.9210    0.7370 O.co2     1 MOL        -0.5652
      9 O3A       -31.0950  -20.0480    2.7320 O.3       1 MOL        -0.1171
     10 PA        -31.4810  -19.7740    4.2770 P.3       1 MOL         0.3266
     11 O1A       -31.7440  -21.0950    4.9210 O.co2     1 MOL        -0.5692
     12 O2A       -32.6180  -18.8130    4.3010 O.co2     1 MOL        -0.5692
     13 N9        -24.4970  -19.1760    6.6240 N.am      1 MOL        -0.1437
     14 C8        -23.6830  -19.8610    5.7420 C.2       1 MOL         0.3266
     15 N7        -22.5150  -20.1650    6.2590 N.2       1 MOL        -0.1690
     16 C5        -22.5720  -19.6500    7.5560 C.2       1 MOL         0.2165
     17 C6        -21.6120  -19.6510    8.6100 C.2       1 MOL         0.2639
     18 O6        -20.4700  -20.1130    8.6320 O.2       1 MOL        -0.3632
     19 N1        -22.1030  -19.0170    9.7660 N.am      1 MOL        -0.1987
     20 C2        -23.3630  -18.4550    9.8670 C.cat     1 MOL         0.3306
     21 N2        -23.6640  -17.8960   11.0490 N.pl3     1 MOL        -0.2124
     22 N3        -24.2450  -18.4430    8.8950 N.2       1 MOL        -0.2224
     23 C4        -23.7910  -19.0530    7.7740 C.2       1 MOL         0.2096
     24 O8        -24.0760  -20.1240    4.5990 O.2       1 MOL        -0.3377
     25 O5'       -30.1360  -19.1120    4.8090 O.3       1 MOL        -0.2441
     26 C5'       -28.9220  -19.8530    5.0040 C.3       1 MOL         0.1130
     27 C4'       -27.9910  -19.0090    5.8350 C.3       1 MOL         0.1162
     28 O4'       -26.7640  -19.7050    6.2070 O.3       1 MOL        -0.3399
     29 C3'       -27.5130  -17.7110    5.1430 C.3       1 MOL         0.0888
     30 O3'       -28.0300  -16.5740    5.8250 O.3       1 MOL        -0.3890
     31 C2'       -26.0140  -17.7980    5.2020 C.3       1 MOL         0.0302
     32 C1'       -25.8490  -18.6540    6.4060 C.3       1 MOL         0.1774
     33 H1        -21.5034  -18.9696   10.5649 H         1 MOL         0.1941
     34 H2        -24.5858  -17.4594   11.1924 H         1 MOL         0.4606
     35 H3        -22.9733  -17.9035   11.8130 H         1 MOL         0.4606
     36 H4        -28.4584  -20.0730    4.0311 H         1 MOL         0.0648
     37 H5        -29.1397  -20.7954    5.5280 H         1 MOL         0.0648
     38 H6        -28.5364  -18.7370    6.7507 H         1 MOL         0.0650
     39 H7        -27.8491  -17.6822    4.0960 H         1 MOL         0.0622
     40 H8        -27.7305  -15.7832    5.3921 H         1 MOL         0.2099
     41 H9        -25.5533  -16.8086    5.3390 H         1 MOL         0.0343
     42 H10       -25.5976  -18.2750    4.3025 H         1 MOL         0.0343
     43 H11       -26.1315  -18.0751    7.2976 H         1 MOL         0.0951
@<TRIPOS>BOND
     1    1    2 ar 
     2    1    3 ar 
     3    1    4 ar 
     4    5    1 1  
     5    6    5 1  
     6    6    7 ar 
     7    6    8 ar 
     8    9    6 1  
     9   10    9 1  
    10   10   11 ar 
    11   10   12 ar 
    12   25   10 1  
    13   13   14 am 
    14   13   23 1  
    15   32   13 1  
    16   14   15 1  
    17   14   24 2  
    18   16   15 2  
    19   16   17 1  
    20   23   16 1  
    21   17   18 2  
    22   17   19 am 
    23   20   19 ar 
    24   20   21 ar 
    25   22   20 ar 
    26   23   22 2  
    27   26   25 1  
    28   27   26 1  
    29   28   27 1  
    30   27   29 1  
    31   28   32 1  
    32   29   30 1  
    33   29   31 1  
    34   31   32 1  
    35   19   33 1  
    36   21   34 1  
    37   21   35 1  
    38   26   36 1  
    39   26   37 1  
    40   27   38 1  
    41   29   39 1  
    42   30   40 1  
    43   31   41 1  
    44   31   42 1  
    45   32   43 1  
@<TRIPOS>SUBSTRUCTURE
     1 MOL         1

