REMARK  0 active torsions:
REMARK  status: ('A' for Active; 'I' for Inactive)
ROOT
ATOM      1  C1  LWG d           9.029  81.360  -1.234  0.00  0.00     0.265 A 
ATOM      2  N1  LWG d           9.922  81.314  -0.200  0.00  0.00    -0.317 N 
ATOM      3  O1  LWG d           9.272  81.103  -2.403  0.00  0.00    -0.267 OA
ATOM      4  S1  LWG d           6.406  81.931  -1.740  0.00  0.00    -0.080 SA
ATOM      5 CL1  LWG d           3.344  82.602  -2.074  0.00  0.00    -0.083 Cl
ATOM      6  C2  LWG d           9.600  81.615   1.101  0.00  0.00     0.210 A 
ATOM      7  N2  LWG d           8.450  81.985   1.572  0.00  0.00    -0.242 NA
ATOM      8 CL2  LWG d           6.349  82.848   3.426  0.00  0.00    -0.083 Cl
ATOM      9  C3  LWG d           7.477  82.059   0.570  0.00  0.00     0.094 A 
ATOM     10  C4  LWG d           7.773  81.758  -0.734  0.00  0.00     0.103 A 
ATOM     11  C5  LWG d           5.425  82.398  -0.413  0.00  0.00     0.042 A 
ATOM     12  C6  LWG d           4.092  82.702  -0.517  0.00  0.00     0.052 A 
ATOM     13  C7  LWG d           3.434  83.062   0.636  0.00  0.00     0.027 A 
ATOM     14  C8  LWG d           4.107  83.113   1.841  0.00  0.00     0.026 A 
ATOM     15  C9  LWG d           5.445  82.800   1.938  0.00  0.00     0.048 A 
ATOM     16  C10 LWG d           6.126  82.431   0.789  0.00  0.00     0.035 A 
ATOM     17  H1  LWG d          10.864  81.046  -0.402  0.00  0.00     0.170 HD
ENDROOT
TORSDOF 0
