### 
### Created by X-TOOL on Fri Sep 26 17:34:43 2014
### 

@<TRIPOS>MOLECULE
2w08_ligand
   20    19     1     0     0
SMALL
GAST_HUCK


@<TRIPOS>ATOM
      1 N          20.2600   15.2810   54.5620 N.4       1 TPO         0.2348
      2 CA         18.8860   15.3250   54.0400 C.3       1 TPO         0.0592
      3 CB         17.8960   15.1610   55.1950 C.3       1 TPO         0.1404
      4 CG2        17.9310   13.7350   55.7490 C.3       1 TPO        -0.0272
      5 OG1        18.1930   16.1160   56.2180 O.3       1 TPO        -0.2658
      6 P          17.0290   16.6210   57.2100 P.3       1 TPO         0.2015
      7 O1P        16.9190   15.5260   58.3970 O.co2     1 TPO        -0.5537
      8 O2P        15.7240   16.8440   56.5380 O.co2     1 TPO        -0.5537
      9 O3P        17.5780   17.9650   57.9260 O.co2     1 TPO        -0.5537
     10 C          18.6450   16.6680   53.3480 C.2       1 TPO         0.0874
     11 O          19.4490   17.5910   53.6040 O.co2     1 TPO        -0.5642
     12 OXT        17.6880   16.7500   52.5890 O.co2     1 TPO        -0.5642
     13 H1         20.4181   14.3959   55.0178 H         1 TPO         0.2011
     14 H2         20.3916   16.0286   55.2252 H         1 TPO         0.2011
     15 H3         20.9122   15.3882   53.8009 H         1 TPO         0.2011
     16 H4         18.7429   14.5092   53.3161 H         1 TPO         0.1054
     17 H5         16.8821   15.3583   54.8168 H         1 TPO         0.0723
     18 H6         17.2115   13.6453   56.5762 H         1 TPO         0.0261
     19 H7         18.9427   13.5093   56.1170 H         1 TPO         0.0261
     20 H8         17.6639   13.0254   54.9521 H         1 TPO         0.0261
@<TRIPOS>BOND
     1    1    2 1  
     2    2    3 1  
     3    2   10 1  
     4    3    4 1  
     5    3    5 1  
     6    5    6 1  
     7    6    7 ar 
     8    6    8 ar 
     9    6    9 ar 
    10   10   11 ar 
    11   10   12 ar 
    12    1   13 1  
    13    1   14 1  
    14    1   15 1  
    15    2   16 1  
    16    3   17 1  
    17    4   18 1  
    18    4   19 1  
    19    4   20 1  
@<TRIPOS>SUBSTRUCTURE
     1 TPO         1

