### 
### Created by X-TOOL on Fri Sep 26 17:34:12 2014
### 

@<TRIPOS>MOLECULE
1gaf_ligand
   32    32     1     0     0
SMALL
GAST_HUCK


@<TRIPOS>ATOM
      1 C1         56.6270   -8.8760   14.9510 C.ar      1 NPE         0.1271
      2 N1         55.8220   -9.0340   16.1330 N.2       1 NPE         0.0349
      3 O1N        54.7280   -8.1710   16.2520 O.2       1 NPE        -0.1540
      4 O2N        56.2280  -10.0260   17.0340 O.2       1 NPE        -0.1540
      5 C2         57.7690   -9.7050   14.7610 C.ar      1 NPE        -0.0310
      6 C3         58.5610   -9.5750   13.6020 C.ar      1 NPE        -0.0184
      7 C4         58.2200   -8.6220   12.6230 C.ar      1 NPE         0.1389
      8 C5         57.0880   -7.7900   12.7920 C.ar      1 NPE        -0.0184
      9 C6         56.2940   -7.9110   13.9500 C.ar      1 NPE        -0.0310
     10 O3P        58.9990   -8.5680   11.4520 O.3       1 NPE        -0.1735
     11 P          60.1210   -7.6010   11.1200 P.3       1 NPE         0.3932
     12 O1P        60.0150   -7.3190    9.7280 O.co2     1 NPE        -0.2881
     13 O2P        59.9220   -6.3840   11.8450 O.co2     1 NPE        -0.2881
     14 C7         61.6850   -8.3030   11.6030 C.3       1 NPE         0.0833
     15 C8         61.8180   -9.7050   11.0300 C.3       1 NPE        -0.0299
     16 C9         63.2580  -10.1960   11.2010 C.3       1 NPE        -0.0399
     17 C10        63.2590  -11.6660   11.6240 C.3       1 NPE         0.0002
     18 C11        64.7000  -12.0870   11.9020 C.2       1 NPE         0.0348
     19 O1         65.1660  -12.2230   12.9960 O.co2     1 NPE        -0.5690
     20 O2         65.3340  -12.2730   10.7200 O.co2     1 NPE        -0.5690
     21 H1         58.0311  -10.4409   15.5125 H         1 NPE         0.0666
     22 H2         59.4307  -10.2073   13.4647 H         1 NPE         0.0573
     23 H3         56.8319   -7.0607   12.0320 H         1 NPE         0.0573
     24 H4         55.4290   -7.2711   14.0820 H         1 NPE         0.0666
     25 H5         61.7410   -8.3501   12.7006 H         1 NPE         0.0524
     26 H6         62.5018   -7.6732   11.2208 H         1 NPE         0.0524
     27 H7         61.5614   -9.6891    9.9605 H         1 NPE         0.0283
     28 H8         61.1345  -10.3838   11.5611 H         1 NPE         0.0283
     29 H9         63.7596   -9.5939   11.9729 H         1 NPE         0.0283
     30 H10        63.7953  -10.0905   10.2470 H         1 NPE         0.0283
     31 H11        62.8404  -12.2851   10.8168 H         1 NPE         0.0430
     32 H12        62.6535  -11.7911   12.5338 H         1 NPE         0.0430
@<TRIPOS>BOND
     1    1    9 ar 
     2    1    5 ar 
     3    1    2 1  
     4    2    4 2  
     5    2    3 2  
     6    5    6 ar 
     7    6    7 ar 
     8    7   10 1  
     9    7    8 ar 
    10    8    9 ar 
    11   10   11 1  
    12   11   14 1  
    13   11   13 ar 
    14   11   12 ar 
    15   14   15 1  
    16   15   16 1  
    17   16   17 1  
    18   17   18 1  
    19   18   20 ar 
    20   18   19 ar 
    21    5   21 1  
    22    6   22 1  
    23    8   23 1  
    24    9   24 1  
    25   14   25 1  
    26   14   26 1  
    27   15   27 1  
    28   15   28 1  
    29   16   29 1  
    30   16   30 1  
    31   17   31 1  
    32   17   32 1  
@<TRIPOS>SUBSTRUCTURE
     1 NPE         1

