### 
### Created by X-TOOL on Fri Sep 26 17:35:01 2014
### 

@<TRIPOS>MOLECULE
4jyc_ligand
   41    43     1     0     0
SMALL
GAST_HUCK


@<TRIPOS>ATOM
      1 PB        -37.1990    0.9500   43.9240 P.3       1 GDP         0.2069
      2 O1B       -38.4530    1.5810   44.4610 O.co2     1 GDP        -0.5891
      3 O2B       -37.4390   -0.2420   43.0690 O.co2     1 GDP        -0.5891
      4 O3B       -36.2130    1.9210   43.2740 O.co2     1 GDP        -0.5891
      5 O3A       -36.3190    0.4940   45.2050 O.3       1 GDP        -0.1548
      6 PA        -36.8260   -0.0270   46.6280 P.3       1 GDP         0.3276
      7 O1A       -37.9180   -1.0510   46.4520 O.co2     1 GDP        -0.5556
      8 O2A       -37.0920    1.1610   47.5290 O.co2     1 GDP        -0.5556
      9 O5'       -35.5190   -0.7600   47.2340 O.3       1 GDP        -0.2436
     10 C5'       -34.9000   -1.8730   46.5890 C.3       1 GDP         0.1132
     11 C4'       -33.9390   -2.5860   47.5340 C.3       1 GDP         0.1190
     12 O4'       -32.8210   -1.7150   47.8350 O.3       1 GDP        -0.3347
     13 C3'       -34.6270   -2.9960   48.8290 C.3       1 GDP         0.1151
     14 O3'       -34.2630   -4.3350   49.2680 O.3       1 GDP        -0.3864
     15 C2'       -34.1970   -1.8620   49.7380 C.3       1 GDP         0.1407
     16 O2'       -34.2110   -2.1690   51.1230 O.3       1 GDP        -0.3835
     17 C1'       -32.7970   -1.5160   49.2450 C.3       1 GDP         0.2218
     18 N9        -32.4480   -0.1300   49.5450 N.pl3     1 GDP        -0.0954
     19 C8        -33.1960    0.9750   49.3250 C.2       1 GDP         0.1855
     20 N7        -32.5230    2.0770   49.7300 N.2       1 GDP        -0.1929
     21 C5        -31.3300    1.7010   50.2180 C.2       1 GDP         0.2558
     22 C6        -30.1450    2.3700   50.7960 C.2       1 GDP         0.2628
     23 O6        -30.0670    3.6150   50.9700 O.2       1 GDP        -0.3594
     24 N1        -29.1390    1.5700   51.1570 N.am      1 GDP        -0.2478
     25 C2        -29.1770    0.2170   51.0030 C.cat     1 GDP         0.2041
     26 N2        -28.1240   -0.5290   51.3820 N.pl3     1 GDP        -0.3327
     27 N3        -30.1970   -0.4540   50.4610 N.pl3     1 GDP        -0.1901
     28 C4        -31.2900    0.2300   50.0780 C.2       1 GDP         0.3268
     29 H1        -34.3422   -1.5155   45.7109 H         1 GDP         0.0648
     30 H2        -35.6781   -2.5803   46.2661 H         1 GDP         0.0648
     31 H3        -33.5635   -3.4914   47.0347 H         1 GDP         0.0651
     32 H4        -35.7197   -2.9779   48.7040 H         1 GDP         0.0648
     33 H5        -34.7193   -4.5370   50.0764 H         1 GDP         0.2100
     34 H6        -34.8669   -1.0034   49.5831 H         1 GDP         0.0677
     35 H7        -33.6204   -2.8938   51.2915 H         1 GDP         0.2101
     36 H8        -32.0584   -2.1837   49.7126 H         1 GDP         0.1021
     37 H9        -34.1929    0.9776   48.8866 H         1 GDP         0.1823
     38 H10       -28.3211    1.9823   51.5583 H         1 GDP         0.1819
     39 H11       -28.1497   -1.5522   51.2669 H         1 GDP         0.1774
     40 H12       -27.2919   -0.0771   51.7874 H         1 GDP         0.1774
     41 H13       -30.1475   -1.4755   50.3387 H         1 GDP         0.2519
@<TRIPOS>BOND
     1    1    2 ar 
     2    1    3 ar 
     3    1    4 ar 
     4    1    5 1  
     5    5    6 1  
     6    6    7 ar 
     7    6    8 ar 
     8    6    9 1  
     9    9   10 1  
    10   10   11 1  
    11   11   12 1  
    12   11   13 1  
    13   12   17 1  
    14   13   14 1  
    15   13   15 1  
    16   15   16 1  
    17   15   17 1  
    18   17   18 1  
    19   18   19 1  
    20   18   28 1  
    21   19   20 2  
    22   20   21 1  
    23   21   22 1  
    24   21   28 2  
    25   22   23 2  
    26   22   24 am 
    27   24   25 ar 
    28   25   26 ar 
    29   25   27 ar 
    30   27   28 1  
    31   10   29 1  
    32   10   30 1  
    33   11   31 1  
    34   13   32 1  
    35   14   33 1  
    36   15   34 1  
    37   16   35 1  
    38   17   36 1  
    39   19   37 1  
    40   24   38 1  
    41   26   39 1  
    42   26   40 1  
    43   27   41 1  
@<TRIPOS>SUBSTRUCTURE
     1 GDP         1

