### 
### Created by X-TOOL on Fri Sep 26 17:34:43 2014
### 

@<TRIPOS>MOLECULE
2wf5_ligand
   27    27     1     0     0
SMALL
GAST_HUCK


@<TRIPOS>ATOM
      1 C1         12.6590   -5.7030   12.5910 C.3       1 BG6         0.1854
      2 C2         11.5390   -6.5360   12.0530 C.3       1 BG6         0.1339
      3 O1         12.8670   -4.5760   11.7340 O.3       1 BG6        -0.3649
      4 O5         13.8610   -6.4490   12.5540 O.3       1 BG6        -0.3404
      5 C3         11.4000   -7.8880   12.7620 C.3       1 BG6         0.1141
      6 O2         10.3180   -5.8300   12.1620 O.3       1 BG6        -0.3841
      7 C4         12.7800   -8.5850   12.7700 C.3       1 BG6         0.1122
      8 O3         10.4130   -8.6660   12.1240 O.3       1 BG6        -0.3864
      9 C5         13.8330   -7.6290   13.3250 C.3       1 BG6         0.1176
     10 O4         12.7230   -9.7570   13.5800 O.3       1 BG6        -0.3865
     11 C6         15.2530   -8.2710   13.3620 C.3       1 BG6         0.1071
     12 O6         15.6480   -8.4260   12.0380 O.3       1 BG6        -0.2734
     13 P          16.9780   -9.2600   11.6540 P.3       1 BG6         0.2008
     14 O1P        17.1640   -8.8820   10.1920 O.co2     1 BG6        -0.5537
     15 O2P        18.0740   -8.7340   12.5330 O.co2     1 BG6        -0.5537
     16 O3P        16.7130  -10.7150   11.8900 O.co2     1 BG6        -0.5537
     17 H1         12.4313   -5.3782   13.6170 H         1 BG6         0.0935
     18 H2         11.7416   -6.7281   10.9890 H         1 BG6         0.0671
     19 H3         12.0836   -4.0387   11.7235 H         1 BG6         0.2126
     20 H4         11.0870   -7.7175   13.8026 H         1 BG6         0.0648
     21 H5          9.6239   -6.3353   11.7554 H         1 BG6         0.2101
     22 H6         13.0506   -8.8670   11.7418 H         1 BG6         0.0647
     23 H7          9.5845   -8.2014   12.1420 H         1 BG6         0.2100
     24 H8         13.5490   -7.3682   14.3552 H         1 BG6         0.0650
     25 H9         12.0670  -10.3495   13.2320 H         1 BG6         0.2100
     26 H10        15.2156   -9.2486   13.8648 H         1 BG6         0.0639
     27 H11        15.9549   -7.6118   13.8937 H         1 BG6         0.0639
@<TRIPOS>BOND
     1    1    2 1  
     2    1    3 1  
     3    1    4 1  
     4    2    5 1  
     5    2    6 1  
     6    4    9 1  
     7    5    7 1  
     8    5    8 1  
     9    7    9 1  
    10    7   10 1  
    11    9   11 1  
    12   11   12 1  
    13   12   13 1  
    14   13   14 ar 
    15   13   15 ar 
    16   13   16 ar 
    17    1   17 1  
    18    2   18 1  
    19    3   19 1  
    20    5   20 1  
    21    6   21 1  
    22    7   22 1  
    23    8   23 1  
    24    9   24 1  
    25   10   25 1  
    26   11   26 1  
    27   11   27 1  
@<TRIPOS>SUBSTRUCTURE
     1 BG6         1

