REMARK  0 active torsions:
REMARK  status: ('A' for Active; 'I' for Inactive)
ROOT
ATOM      1 BR3  K17 d         -10.842   2.626   6.606  0.00  0.00    -0.047 Br
ATOM      2  C3  K17 d         -11.052   4.330   5.844  0.00  0.00     0.058 A 
ATOM      3  C2  K17 d         -10.819   5.438   6.664  0.00  0.00     0.049 A 
ATOM      4 BR2  K17 d         -10.246   5.106   8.457  0.00  0.00    -0.048 Br
ATOM      5  C7  K17 d         -11.463   4.463   4.529  0.00  0.00     0.082 A 
ATOM      6  N8  K17 d         -11.741   3.524   3.561  0.00  0.00    -0.348 N 
ATOM      7  C9  K17 d         -12.072   4.250   2.479  0.00  0.00     0.208 A 
ATOM      8  N5  K17 d         -12.018   5.585   2.759  0.00  0.00    -0.240 NA
ATOM      9  C6  K17 d         -11.643   5.752   4.032  0.00  0.00     0.105 A 
ATOM     10  C4  K17 d         -11.417   6.899   4.843  0.00  0.00     0.060 A 
ATOM     11 BR4  K17 d         -11.677   8.677   4.174  0.00  0.00    -0.047 Br
ATOM     12  C1  K17 d         -11.001   6.736   6.167  0.00  0.00     0.049 A 
ATOM     13 BR1  K17 d         -10.718   8.234   7.327  0.00  0.00    -0.048 Br
ATOM     14  H1  K17 d         -11.704   2.498   3.647  0.00  0.00     0.167 HD
ENDROOT
TORSDOF 0
