### 
### Created by X-TOOL on Fri Sep 26 17:34:44 2014
### 

@<TRIPOS>MOLECULE
3ikg_ligand
   45    47     1     0     0
SMALL
GAST_HUCK


@<TRIPOS>ATOM
      1 N1         13.4030    2.9040    1.2500 N.am      1 J8Z        -0.2786
      2 C2         14.6550    2.8290    1.9910 C.3       1 J8Z         0.0783
      3 C3         15.3620    1.4970    1.6700 C.3       1 J8Z         0.1030
      4 O4         16.7550    1.6470    1.9640 O.3       1 J8Z        -0.2736
      5 C5         12.2710    3.3140    1.8620 C.2       1 J8Z         0.2149
      6 O6         12.2510    3.6510    3.0290 O.2       1 J8Z        -0.3859
      7 P7         17.1040    0.5510    3.1200 P.3       1 J8Z         0.2008
      8 O8         17.2570   -0.7630    2.4660 O.co2     1 J8Z        -0.5537
      9 O9         18.4940    0.9640    3.8200 O.co2     1 J8Z        -0.5537
     10 O10        15.9330    0.5610    4.2060 O.co2     1 J8Z        -0.5537
     11 C11        11.1110    3.5410    0.9990 C.2       1 J8Z         0.1049
     12 C12        10.7530    2.9720   -0.1710 C.2       1 J8Z        -0.0363
     13 C13         9.5580    3.3770   -0.7900 C.ar      1 J8Z        -0.0146
     14 C14         8.8240    4.3850   -0.1110 C.ar      1 J8Z         0.0418
     15 S15         9.8020    4.7120    1.3240 S.3       1 J8Z        -0.0231
     16 C16         9.0090    2.9030   -1.9960 C.ar      1 J8Z        -0.0622
     17 C17         7.8610    3.4460   -2.4870 C.ar      1 J8Z        -0.0688
     18 C18         7.1620    4.4400   -1.7990 C.ar      1 J8Z        -0.0679
     19 C19         7.6600    4.9250   -0.6130 C.ar      1 J8Z        -0.0468
     20 C20        15.5440    3.9520    1.3930 C.3       1 J8Z         0.0047
     21 C21        14.0100    5.9760    1.0000 C.ar      1 J8Z        -0.0672
     22 C22        15.0540    5.3630    1.7270 C.ar      1 J8Z        -0.0476
     23 C23        15.6370    6.0690    2.7830 C.ar      1 J8Z        -0.0594
     24 C24        15.2010    7.3600    3.1050 C.ar      1 J8Z        -0.0529
     25 C25        14.1720    7.9740    2.3710 C.ar      1 J8Z        -0.0675
     26 C26        13.5650    7.2670    1.3290 C.ar      1 J8Z        -0.0752
     27 C27        15.8910    8.1440    4.2250 C.3       1 J8Z        -0.0327
     28 H1         13.3816    2.6505    0.2829 H         1 J8Z         0.1846
     29 H2         14.4968    2.9509    3.0727 H         1 J8Z         0.0604
     30 H3         15.2305    1.2528    0.6056 H         1 J8Z         0.0637
     31 H4         14.9362    0.6915    2.2863 H         1 J8Z         0.0637
     32 H5         11.3813    2.2096   -0.6292 H         1 J8Z         0.0547
     33 H6          9.5019    2.1027   -2.5360 H         1 J8Z         0.0594
     34 H7          7.4787    3.0967   -3.4393 H         1 J8Z         0.0564
     35 H8          6.2315    4.8272   -2.1981 H         1 J8Z         0.0589
     36 H9          7.1461    5.7182   -0.0822 H         1 J8Z         0.0576
     37 H10        15.5588    3.8387    0.2990 H         1 J8Z         0.0448
     38 H11        16.5642    3.8355    1.7875 H         1 J8Z         0.0448
     39 H12        13.5462    5.4435    0.1776 H         1 J8Z         0.0499
     40 H13        16.4344    5.6127    3.3583 H         1 J8Z         0.0494
     41 H14        13.8532    8.9822    2.6096 H         1 J8Z         0.0499
     42 H15        12.7493    7.7159    0.7738 H         1 J8Z         0.0582
     43 H16        16.6650    7.5154    4.6895 H         1 J8Z         0.0390
     44 H17        15.1478    8.4309    4.9835 H         1 J8Z         0.0390
     45 H18        16.3560    9.0488    3.8066 H         1 J8Z         0.0390
@<TRIPOS>BOND
     1    1    2 1  
     2    1    5 am 
     3    2    3 1  
     4    2   20 1  
     5    3    4 1  
     6    4    7 1  
     7    5    6 2  
     8    5   11 1  
     9    7    8 ar 
    10    7    9 ar 
    11    7   10 ar 
    12   11   12 2  
    13   11   15 1  
    14   12   13 1  
    15   13   14 ar 
    16   13   16 ar 
    17   14   15 1  
    18   14   19 ar 
    19   16   17 ar 
    20   17   18 ar 
    21   18   19 ar 
    22   20   22 1  
    23   22   21 ar 
    24   21   26 ar 
    25   22   23 ar 
    26   23   24 ar 
    27   24   25 ar 
    28   24   27 1  
    29   25   26 ar 
    30    1   28 1  
    31    2   29 1  
    32    3   30 1  
    33    3   31 1  
    34   12   32 1  
    35   16   33 1  
    36   17   34 1  
    37   18   35 1  
    38   19   36 1  
    39   20   37 1  
    40   20   38 1  
    41   21   39 1  
    42   23   40 1  
    43   25   41 1  
    44   26   42 1  
    45   27   43 1  
    46   27   44 1  
    47   27   45 1  
@<TRIPOS>SUBSTRUCTURE
     1 J8Z         1

