### 
### Created by X-TOOL on Fri Sep 26 17:34:46 2014
### 

@<TRIPOS>MOLECULE
2wzm_ligand
   59    62     1     0     0
SMALL
GAST_HUCK


@<TRIPOS>ATOM
      1 PA          9.5840   44.9010   -3.1550 P.3       1 NA7         0.2972
      2 O1A         8.9740   44.1490   -1.9760 O.co2     1 NA7        -0.6127
      3 O2A        11.0320   45.2990   -3.0320 O.co2     1 NA7        -0.6127
      4 O5B         9.5900   44.0650   -4.5390 O.3       1 NA7        -0.2476
      5 C5B         8.4280   43.5650   -5.1570 C.3       1 NA7         0.1128
      6 C4B         8.7870   42.7870   -6.4230 C.3       1 NA7         0.1192
      7 O4B         8.6950   43.6460   -7.5730 O.3       1 NA7        -0.3361
      8 C3B        10.1880   42.1990   -6.4140 C.3       1 NA7         0.1196
      9 O3B        10.0800   40.8420   -6.8660 O.3       1 NA7        -0.3860
     10 C2B        10.9760   43.0740   -7.3900 C.3       1 NA7         0.1722
     11 O2B        11.9330   42.3150   -8.1080 O.3       1 NA7        -0.2647
     12 C1B         9.8910   43.5710   -8.3410 C.3       1 NA7         0.2057
     13 N9A        10.1500   44.8900   -9.0000 N.pl3     1 NA7        -0.1916
     14 C8A        10.6560   46.0310   -8.4850 C.2       1 NA7         0.1123
     15 N7A        10.7110   46.9780   -9.4610 N.2       1 NA7        -0.2958
     16 C5A        10.2330   46.4170  -10.6010 C.ar      1 NA7         0.1045
     17 C6A        10.0410   46.8940  -11.9000 C.ar      1 NA7         0.1298
     18 N6A        10.3730   48.1730  -12.2560 N.pl3     1 NA7        -0.3152
     19 N1A         9.5190   46.0370  -12.8280 N.ar      1 NA7        -0.2698
     20 C2A         9.1970   44.7650  -12.5060 C.ar      1 NA7         0.0533
     21 N3A         9.3740   44.3000  -11.2570 N.ar      1 NA7        -0.2714
     22 C4A         9.8870   45.1070  -10.3000 C.ar      1 NA7         0.1613
     23 O3          8.6640   46.1540   -3.6150 O.3       1 NA7        -0.1319
     24 PN          7.5380   46.9630   -2.7780 P.3       1 NA7         0.2972
     25 O1N         6.4680   46.0340   -2.2240 O.co2     1 NA7        -0.6127
     26 O2N         7.2030   48.1370   -3.6250 O.co2     1 NA7        -0.6127
     27 O5D         8.2630   47.4240   -1.4550 O.3       1 NA7        -0.2476
     28 C5D         9.5050   48.0680   -1.5360 C.3       1 NA7         0.1126
     29 C4D         9.7240   48.2860   -0.0690 C.3       1 NA7         0.1154
     30 O4D        10.7290   47.4270    0.4660 O.3       1 NA7        -0.3686
     31 C3D        10.2520   49.6890    0.0490 C.3       1 NA7         0.1117
     32 O3D         9.1350   50.5970   -0.0750 O.3       1 NA7        -0.3865
     33 C2D        11.0080   49.6250    1.3810 C.3       1 NA7         0.1068
     34 O2D        10.2040   50.0630    2.4930 O.3       1 NA7        -0.3869
     35 C1D        11.3600   48.1440    1.5530 C.3       1 NA7         0.0767
     36 P2B        13.4130   42.8660   -8.3440 P.3       1 NA7         0.2015
     37 O1X        13.9560   43.2910   -7.0040 O.co2     1 NA7        -0.5537
     38 O2X        14.1160   41.6880   -8.9600 O.co2     1 NA7        -0.5537
     39 O3X        13.2610   44.0410   -9.2950 O.co2     1 NA7        -0.5537
     40 H1          7.7695   44.4050   -5.4230 H         1 NA7         0.0648
     41 H2          7.9051   42.8963   -4.4574 H         1 NA7         0.0648
     42 H3          8.0657   41.9632   -6.5279 H         1 NA7         0.0651
     43 H4         10.6384   42.2311   -5.4110 H         1 NA7         0.0651
     44 H5         10.9418   40.4421   -6.8728 H         1 NA7         0.2100
     45 H6         11.4723   43.9065   -6.8698 H         1 NA7         0.0732
     46 H7          9.7668   42.8233   -9.1382 H         1 NA7         0.1000
     47 H8         10.9704   46.1714   -7.4519 H         1 NA7         0.1349
     48 H9         10.2192   48.4950  -13.2222 H         1 NA7         0.1820
     49 H10        10.7767   48.8136  -11.5577 H         1 NA7         0.1820
     50 H11         8.7895   44.1090  -13.2667 H         1 NA7         0.0996
     51 H12         9.4479   49.0144   -2.0937 H         1 NA7         0.0648
     52 H13        10.2789   47.4258   -1.9817 H         1 NA7         0.0648
     53 H14         8.7815   48.1586    0.4837 H         1 NA7         0.0650
     54 H15        10.9644   49.9179   -0.7573 H         1 NA7         0.0647
     55 H16         8.5079   50.4222    0.6169 H         1 NA7         0.2100
     56 H17        11.9192   50.2391    1.3298 H         1 NA7         0.0643
     57 H18         9.9341   50.9629    2.3521 H         1 NA7         0.2100
     58 H19        12.4508   48.0083    1.5114 H         1 NA7         0.0586
     59 H20        10.9812   47.7759    2.5179 H         1 NA7         0.0586
@<TRIPOS>BOND
     1    1    2 ar 
     2    1    3 ar 
     3    1    4 1  
     4    1   23 1  
     5    4    5 1  
     6    5    6 1  
     7    6    7 1  
     8    6    8 1  
     9    7   12 1  
    10    8    9 1  
    11    8   10 1  
    12   10   11 1  
    13   10   12 1  
    14   11   36 1  
    15   12   13 1  
    16   13   14 1  
    17   13   22 1  
    18   14   15 2  
    19   15   16 1  
    20   16   17 ar 
    21   16   22 ar 
    22   17   18 1  
    23   17   19 ar 
    24   19   20 ar 
    25   20   21 ar 
    26   21   22 ar 
    27   23   24 1  
    28   24   25 ar 
    29   24   26 ar 
    30   24   27 1  
    31   27   28 1  
    32   28   29 1  
    33   29   30 1  
    34   29   31 1  
    35   30   35 1  
    36   31   32 1  
    37   31   33 1  
    38   33   34 1  
    39   33   35 1  
    40   36   37 ar 
    41   36   38 ar 
    42   36   39 ar 
    43    5   40 1  
    44    5   41 1  
    45    6   42 1  
    46    8   43 1  
    47    9   44 1  
    48   10   45 1  
    49   12   46 1  
    50   14   47 1  
    51   18   48 1  
    52   18   49 1  
    53   20   50 1  
    54   28   51 1  
    55   28   52 1  
    56   29   53 1  
    57   31   54 1  
    58   32   55 1  
    59   33   56 1  
    60   34   57 1  
    61   35   58 1  
    62   35   59 1  
@<TRIPOS>SUBSTRUCTURE
     1 NA7         1

