### 
### Created by X-TOOL on Fri Sep 26 17:34:20 2014
### 

@<TRIPOS>MOLECULE
1lbf_ligand
   38    38     1     0     0
SMALL
GAST_HUCK


@<TRIPOS>ATOM
      1 P          -6.3130  -23.0150   28.0760 P.3       1 MOL         0.2008
      2 O1P        -5.0920  -22.9280   27.2610 O.co2     1 MOL        -0.5537
      3 O2P        -7.5040  -22.4980   27.3370 O.co2     1 MOL        -0.5537
      4 O3P        -6.4450  -24.3750   28.5520 O.co2     1 MOL        -0.5537
      5 O5'        -6.1980  -22.2390   29.3450 O.3       1 MOL        -0.2734
      6 C5'        -5.1760  -21.9580   30.0560 C.3       1 MOL         0.1068
      7 C4'        -5.4090  -21.2230   31.3900 C.3       1 MOL         0.1111
      8 O4'        -5.4830  -19.8010   31.1350 O.3       1 MOL        -0.3865
      9 C3'        -6.7310  -21.6960   32.0510 C.3       1 MOL         0.1111
     10 O3'        -6.4440  -22.9900   32.5680 O.3       1 MOL        -0.3865
     11 C2'        -7.1600  -20.8460   33.2850 C.3       1 MOL         0.1029
     12 O2'        -6.1590  -20.4380   34.1710 O.3       1 MOL        -0.3872
     13 C1'        -8.3100  -21.3940   34.0870 C.3       1 MOL         0.0532
     14 NH         -9.2920  -21.9510   33.1990 N.pl3     1 MOL        -0.3173
     15 C1        -11.5690  -22.8590   32.9600 C.ar      1 MOL         0.0273
     16 C2        -10.6200  -22.0160   33.6290 C.ar      1 MOL         0.0531
     17 C3        -11.0030  -21.1760   34.7100 C.ar      1 MOL        -0.0405
     18 C4        -12.3340  -21.1740   35.1210 C.ar      1 MOL        -0.0709
     19 C5        -13.2870  -21.9950   34.4610 C.ar      1 MOL        -0.0714
     20 C6        -12.9070  -22.8240   33.4000 C.ar      1 MOL        -0.0592
     21 C7        -11.2310  -23.8430   31.9140 C.2       1 MOL         0.0559
     22 O71       -10.1010  -23.9610   31.4600 O.co2     1 MOL        -0.5650
     23 O72       -12.1160  -24.5870   31.4970 O.co2     1 MOL        -0.5650
     24 H1         -4.5146  -21.3265   29.4447 H         1 MOL         0.0639
     25 H2         -4.6671  -22.9052   30.2879 H         1 MOL         0.0639
     26 H3         -4.5701  -21.4312   32.0704 H         1 MOL         0.0646
     27 H4         -5.6115  -19.3395   31.9554 H         1 MOL         0.2100
     28 H5         -7.5407  -21.7199   31.3069 H         1 MOL         0.0647
     29 H6         -6.1741  -23.5607   31.8581 H         1 MOL         0.2100
     30 H7         -7.5371  -19.9149   32.8368 H         1 MOL         0.0640
     31 H8         -5.4250  -20.0891   33.6789 H         1 MOL         0.2100
     32 H9         -8.7656  -20.5838   34.6752 H         1 MOL         0.0540
     33 H10        -7.9429  -22.1781   34.7655 H         1 MOL         0.0540
     34 H11        -9.0233  -22.2949   32.2660 H         1 MOL         0.1772
     35 H12       -10.2719  -20.5478   35.2059 H         1 MOL         0.0523
     36 H13       -12.6435  -20.5440   35.9471 H         1 MOL         0.0604
     37 H14       -14.3218  -21.9790   34.7835 H         1 MOL         0.0513
     38 H15       -13.6491  -23.4453   32.9118 H         1 MOL         0.0616
@<TRIPOS>BOND
     1    1    5 1  
     2    1    4 ar 
     3    1    3 ar 
     4    1    2 ar 
     5    5    6 1  
     6    6    7 1  
     7    7    9 1  
     8    7    8 1  
     9    9   11 1  
    10    9   10 1  
    11   11   13 1  
    12   11   12 1  
    13   13   14 1  
    14   14   16 1  
    15   16   15 ar 
    16   16   17 ar 
    17   17   18 ar 
    18   18   19 ar 
    19   19   20 ar 
    20   20   15 ar 
    21   15   21 1  
    22   21   23 ar 
    23   21   22 ar 
    24    6   24 1  
    25    6   25 1  
    26    7   26 1  
    27    8   27 1  
    28    9   28 1  
    29   10   29 1  
    30   11   30 1  
    31   12   31 1  
    32   13   32 1  
    33   13   33 1  
    34   14   34 1  
    35   17   35 1  
    36   18   36 1  
    37   19   37 1  
    38   20   38 1  
@<TRIPOS>SUBSTRUCTURE
     1 MOL         1

