### 
### Created by X-TOOL on Fri Sep 26 17:34:40 2014
### 

@<TRIPOS>MOLECULE
3bxe_ligand
   15    14     1     0     0
SMALL
GAST_HUCK


@<TRIPOS>ATOM
      1 P         -43.0440    4.4020    4.7760 P.3       1 MOL         0.2042
      2 O1P       -44.4530    4.5630    5.3160 O.co2     1 MOL        -0.5536
      3 O2P       -41.9090    4.6880    5.7580 O.co2     1 MOL        -0.5536
      4 O3P       -42.8640    5.0660    3.4200 O.co2     1 MOL        -0.5536
      5 O1        -42.8990    2.8190    4.4800 O.3       1 MOL        -0.2570
      6 C1        -43.0600    1.8880    5.5780 C.3       1 MOL         0.1532
      7 C2        -42.3320    0.5840    5.3600 C.2       1 MOL         0.1608
      8 O2        -41.5340    0.4550    4.4390 O.2       1 MOL        -0.3863
      9 C3        -42.6000   -0.5740    6.2970 C.3       1 MOL         0.1198
     10 O3        -42.0420   -1.7950    5.7660 O.3       1 MOL        -0.3756
     11 H1        -44.1319    1.6741    5.7014 H         1 MOL         0.0850
     12 H2        -42.6718    2.3567    6.4943 H         1 MOL         0.0850
     13 H3        -43.6863   -0.6961    6.4198 H         1 MOL         0.0793
     14 H4        -42.1420   -0.3620    7.2744 H         1 MOL         0.0793
     15 H5        -41.1033   -1.6935    5.6611 H         1 MOL         0.2130
@<TRIPOS>BOND
     1    1    2 ar 
     2    1    3 ar 
     3    1    4 ar 
     4    1    5 1  
     5    5    6 1  
     6    6    7 1  
     7    7    8 2  
     8    7    9 1  
     9    9   10 1  
    10    6   11 1  
    11    6   12 1  
    12    9   13 1  
    13    9   14 1  
    14   10   15 1  
@<TRIPOS>SUBSTRUCTURE
     1 MOL         1

