### 
### Created by X-TOOL on Fri Sep 26 17:34:45 2014
### 

@<TRIPOS>MOLECULE
3g3r_ligand
   14    13     1     0     0
SMALL
GAST_HUCK


@<TRIPOS>ATOM
      1 PG         13.4240   16.9860   15.7500 P.3       1 ANP         0.1806
      2 O1G        13.4640   18.3830   15.2750 O.co2     1 ANP        -0.5454
      3 O2G        13.9110   17.0400   17.2770 O.co2     1 ANP        -0.5454
      4 O3G        14.4880   15.9260   15.2520 O.co2     1 ANP        -0.5454
      5 PB         11.5650   14.9580   14.8860 P.3       1 ANP         0.2844
      6 O1B        10.0120   14.8930   15.1850 O.co2     1 ANP        -0.5686
      7 O2B        12.0990   15.1990   13.5280 O.co2     1 ANP        -0.5686
      8 N3B        11.8990   16.3360   15.7360 N.am      1 ANP        -0.1759
      9 PA         12.5900   12.2090   14.9600 P.3       1 ANP         0.2047
     10 O1A        13.4870   12.6320   13.7440 O.co2     1 ANP        -0.5893
     11 O2A        11.5480   11.2950   14.2310 O.co2     1 ANP        -0.5893
     12 O3A        12.0370   13.5780   15.5050 O.3       1 ANP        -0.1661
     13 O5'        13.2570   11.5830   16.1130 O.co2     1 ANP        -0.5893
     14 H1         11.1686   16.7852   16.2506 H         1 ANP         0.2136
@<TRIPOS>BOND
     1    1    2 ar 
     2    1    3 ar 
     3    1    4 ar 
     4    8    1 am 
     5    5    6 ar 
     6    5    7 ar 
     7    5    8 1  
     8   12    5 1  
     9    9   10 ar 
    10    9   11 ar 
    11    9   12 1  
    12    9   13 ar 
    13    8   14 1  
@<TRIPOS>SUBSTRUCTURE
     1 ANP         1

