### 
### Created by X-TOOL on Fri Sep 26 17:35:01 2014
### 

@<TRIPOS>MOLECULE
4k3n_ligand
   28    29     1     0     0
SMALL
GAST_HUCK


@<TRIPOS>ATOM
      1 O1         88.0050   75.9660   29.9400 O.co2     1 1OT        -0.5572
      2 P          87.3490   74.6510   30.1380 P.3       1 1OT         0.1220
      3 O2         87.1840   73.8670   28.7390 O.co2     1 1OT        -0.5572
      4 O3         88.2430   73.7570   31.1400 O.co2     1 1OT        -0.5572
      5 C1         85.7340   75.0450   30.8620 C.3       1 1OT         0.0749
      6 N1         84.9780   75.8350   29.9120 N.4       1 1OT         0.2443
      7 C2         84.8980   73.8610   31.1190 C.ar      1 1OT         0.0153
      8 C10        83.8510   74.0310   32.0000 C.ar      1 1OT        -0.0565
      9 C9         83.0190   72.9710   32.2700 C.ar      1 1OT        -0.0308
     10 C5         83.1730   71.7230   31.6810 C.ar      1 1OT         0.1059
     11 C4         84.2360   71.5780   30.7820 C.ar      1 1OT        -0.0308
     12 C3         85.0990   72.6370   30.4940 C.ar      1 1OT        -0.0565
     13 N2         82.3190   70.7540   32.0020 N.pl3     1 1OT        -0.1679
     14 N3         82.3840   69.4700   31.4730 N.2       1 1OT        -0.2076
     15 C8         81.3430   68.8530   32.0730 C.2       1 1OT        -0.0061
     16 C7         80.6920   69.7540   32.9100 C.2       1 1OT        -0.0478
     17 C6         81.3320   70.9720   32.8640 C.2       1 1OT         0.0629
     18 H1         85.8873   75.6021   31.7980 H         1 1OT         0.1205
     19 H2         84.0771   76.0603   30.3040 H         1 1OT         0.2024
     20 H3         84.8522   75.3083   29.0618 H         1 1OT         0.2024
     21 H4         85.4785   76.6861   29.7091 H         1 1OT         0.2024
     22 H5         83.6858   74.9913   32.4750 H         1 1OT         0.0545
     23 H6         82.2071   73.1155   32.9735 H         1 1OT         0.0574
     24 H7         84.3929   70.6208   30.2979 H         1 1OT         0.0574
     25 H8         85.9147   72.5058   29.7923 H         1 1OT         0.0545
     26 H9         81.0577   67.8125   31.9248 H         1 1OT         0.0654
     27 H10        79.8110   69.5299   33.5097 H         1 1OT         0.0343
     28 H11        81.0892   71.8876   33.4013 H         1 1OT         0.0991
@<TRIPOS>BOND
     1    1    2 ar 
     2    2    3 ar 
     3    2    4 ar 
     4    2    5 1  
     5    5    6 1  
     6    5    7 1  
     7    7    8 ar 
     8    7   12 ar 
     9    8    9 ar 
    10    9   10 ar 
    11   10   11 ar 
    12   10   13 1  
    13   11   12 ar 
    14   13   14 1  
    15   13   17 1  
    16   14   15 2  
    17   15   16 1  
    18   16   17 2  
    19    5   18 1  
    20    6   19 1  
    21    6   20 1  
    22    6   21 1  
    23    8   22 1  
    24    9   23 1  
    25   11   24 1  
    26   12   25 1  
    27   15   26 1  
    28   16   27 1  
    29   17   28 1  
@<TRIPOS>SUBSTRUCTURE
     1 1OT         1

