### 
### Created by X-TOOL on Fri Sep 26 17:34:56 2014
### 

@<TRIPOS>MOLECULE
4dy6_ligand
   72    77     1     0     0
SMALL
GAST_HUCK


@<TRIPOS>ATOM
      1 P2D        17.3480    9.9490   17.6430 P.3       1 A22         0.2015
      2 O11        18.0650   10.8760   18.5940 O.co2     1 A22        -0.5537
      3 O12        17.3460    8.4970   18.0540 O.co2     1 A22        -0.5537
      4 O13        15.9920   10.4720   17.2330 O.co2     1 A22        -0.5537
      5 P1A        13.9600    7.4110   13.2230 P.3       1 A22         0.2972
      6 O14        13.7360    6.2340   12.3070 O.co2     1 A22        -0.6127
      7 O15        13.6940    7.2680   14.7010 O.co2     1 A22        -0.6127
      8 O5D        15.4870    7.9020   13.0210 O.3       1 A22        -0.2476
      9 C5D        16.5580    6.9570   12.8980 C.3       1 A22         0.1128
     10 C4D        17.8190    7.3550   13.6830 C.3       1 A22         0.1192
     11 O4D        18.5520    8.3940   13.0260 O.3       1 A22        -0.3361
     12 C3D        17.5650    7.8760   15.0920 C.3       1 A22         0.1196
     13 O3D        18.5020    7.2560   15.9730 O.3       1 A22        -0.3860
     14 C2D        17.8240    9.3730   15.0470 C.3       1 A22         0.1722
     15 O2D        18.2580    9.9410   16.2980 O.3       1 A22        -0.2647
     16 C1D        18.9170    9.3870   13.9940 C.3       1 A22         0.2057
     17 N9A        19.1410   10.6860   13.3160 N.pl3     1 A22        -0.1916
     18 C8A        18.2320   11.5750   12.8890 C.2       1 A22         0.1123
     19 N7A        18.8820   12.6120   12.3190 N.2       1 A22        -0.2958
     20 C5A        20.2070   12.3570   12.3790 C.ar      1 A22         0.1045
     21 C6A        21.3480   13.0360   11.9580 C.ar      1 A22         0.1298
     22 N6A        21.2510   14.2360   11.3380 N.pl3     1 A22        -0.3152
     23 N1A        22.5590   12.4770   12.1850 N.ar      1 A22        -0.2698
     24 C2A        22.6750   11.2950   12.8080 C.ar      1 A22         0.0533
     25 N3A        21.5950   10.6220   13.2170 N.ar      1 A22        -0.2714
     26 C4A        20.3570   11.1340   13.0090 C.ar      1 A22         0.1613
     27 P1B        13.2670   10.1720   12.9180 P.3       1 A22         0.2972
     28 O16        14.2270   10.3330   14.0750 O.co2     1 A22        -0.6127
     29 O17        11.9010   10.8180   12.9560 O.co2     1 A22        -0.6127
     30 O18        13.0340    8.5990   12.6430 O.3       1 A22        -0.1319
     31 O5E        13.9990   10.7220   11.5940 O.3       1 A22        -0.2476
     32 C5E        14.0490    9.9590   10.3930 C.3       1 A22         0.1128
     33 C4E        15.4910    9.8580    9.9180 C.3       1 A22         0.1189
     34 O4E        16.0190    8.5320   10.0570 O.3       1 A22        -0.3364
     35 C3E        15.6030   10.1950    8.4460 C.3       1 A22         0.1149
     36 O3E        15.6660   11.6170    8.2800 O.3       1 A22        -0.3864
     37 C2E        16.8330    9.4130    8.0100 C.3       1 A22         0.1385
     38 O2E        17.9800   10.2700    7.9050 O.3       1 A22        -0.3836
     39 C1E        17.0290    8.3140    9.0760 C.3       1 A22         0.2010
     40 N9B        16.9550    6.9620    8.4480 N.pl3     1 A22        -0.1919
     41 C8B        15.8800    6.3830    7.8790 C.2       1 A22         0.1123
     42 N7B        16.2240    5.1690    7.3890 N.2       1 A22        -0.2958
     43 C5B        17.5420    4.9850    7.6320 C.ar      1 A22         0.1045
     44 C6B        18.4590    3.9560    7.3630 C.ar      1 A22         0.1298
     45 N6B        18.0950    2.8140    6.7220 N.pl3     1 A22        -0.3152
     46 N1B        19.7410    4.1090    7.7620 N.ar      1 A22        -0.2698
     47 C2B        20.1270    5.2200    8.4030 C.ar      1 A22         0.0533
     48 N3B        19.2750    6.2090    8.6730 N.ar      1 A22        -0.2714
     49 C4B        17.9840    6.1240    8.2970 C.ar      1 A22         0.1613
     50 H1         16.8235    6.8679   11.8343 H         1 A22         0.0648
     51 H2         16.2081    5.9833   13.2714 H         1 A22         0.0648
     52 H3         18.4524    6.4584   13.7535 H         1 A22         0.0651
     53 H4         16.5346    7.6652   15.4141 H         1 A22         0.0651
     54 H5         18.3582    7.5697   16.8581 H         1 A22         0.2100
     55 H6         16.9310    9.9188   14.7084 H         1 A22         0.0732
     56 H7         19.8623    9.0978   14.4764 H         1 A22         0.1000
     57 H8         17.1517   11.4769   12.9858 H         1 A22         0.1349
     58 H9         22.1026   14.7277   11.0316 H         1 A22         0.1820
     59 H10        20.3256   14.6570   11.1728 H         1 A22         0.1820
     60 H11        23.6605   10.8787   12.9827 H         1 A22         0.0996
     61 H12        13.4416   10.4518    9.6196 H         1 A22         0.0648
     62 H13        13.6535    8.9502   10.5824 H         1 A22         0.0648
     63 H14        16.1011   10.5589   10.5067 H         1 A22         0.0651
     64 H15        14.7245    9.8269    7.8957 H         1 A22         0.0648
     65 H16        16.4255   11.9551    8.7399 H         1 A22         0.2100
     66 H17        16.6515    8.9487    7.0295 H         1 A22         0.0676
     67 H18        17.8084   10.9497    7.2639 H         1 A22         0.2101
     68 H19        18.0178    8.4237    9.5452 H         1 A22         0.0996
     69 H20        14.8860    6.8242    7.8219 H         1 A22         0.1349
     70 H21        18.7942    2.0797    6.5411 H         1 A22         0.1820
     71 H22        17.1199    2.6830    6.4171 H         1 A22         0.1820
     72 H23        21.1617    5.3176    8.7110 H         1 A22         0.0996
@<TRIPOS>BOND
     1    1    2 ar 
     2    1    3 ar 
     3    1    4 ar 
     4   15    1 1  
     5    5    6 ar 
     6    5    7 ar 
     7    5    8 1  
     8   30    5 1  
     9    8    9 1  
    10    9   10 1  
    11   10   11 1  
    12   10   12 1  
    13   11   16 1  
    14   12   13 1  
    15   12   14 1  
    16   14   15 1  
    17   14   16 1  
    18   16   17 1  
    19   17   18 1  
    20   17   26 1  
    21   18   19 2  
    22   20   19 1  
    23   20   21 ar 
    24   26   20 ar 
    25   21   22 1  
    26   21   23 ar 
    27   24   23 ar 
    28   25   24 ar 
    29   26   25 ar 
    30   27   28 ar 
    31   27   29 ar 
    32   27   30 1  
    33   27   31 1  
    34   31   32 1  
    35   32   33 1  
    36   33   34 1  
    37   33   35 1  
    38   34   39 1  
    39   35   36 1  
    40   35   37 1  
    41   37   38 1  
    42   37   39 1  
    43   39   40 1  
    44   40   41 1  
    45   40   49 1  
    46   41   42 2  
    47   42   43 1  
    48   43   44 ar 
    49   43   49 ar 
    50   44   45 1  
    51   44   46 ar 
    52   46   47 ar 
    53   47   48 ar 
    54   48   49 ar 
    55    9   50 1  
    56    9   51 1  
    57   10   52 1  
    58   12   53 1  
    59   13   54 1  
    60   14   55 1  
    61   16   56 1  
    62   18   57 1  
    63   22   58 1  
    64   22   59 1  
    65   24   60 1  
    66   32   61 1  
    67   32   62 1  
    68   33   63 1  
    69   35   64 1  
    70   36   65 1  
    71   37   66 1  
    72   38   67 1  
    73   39   68 1  
    74   41   69 1  
    75   45   70 1  
    76   45   71 1  
    77   47   72 1  
@<TRIPOS>SUBSTRUCTURE
     1 A22         1

