### 
### Created by X-TOOL on Fri Sep 26 17:34:26 2014
### 

@<TRIPOS>MOLECULE
1mue_ligand
   49    51     1     0     0
SMALL
GAST_HUCK


@<TRIPOS>ATOM
      1 C1         22.0800  -15.7580   25.0900 C.ar      1 CDD         0.1702
      2 N2         20.9530  -16.4530   25.2050 N.ar      1 CDD        -0.0407
      3 C3         19.8510  -15.8890   25.7250 C.ar      1 CDD         0.2274
      4 C4         19.8360  -14.5630   26.1210 C.ar      1 CDD         0.1066
      5 C5         20.9710  -13.8180   25.9770 C.ar      1 CDD         0.0907
      6 C6         22.1230  -14.4260   25.4800 C.ar      1 CDD         0.0905
      7 C11        18.6030  -16.7060   25.9480 C.3       1 CDD         0.3002
      8 C12        17.9180  -17.0720   24.6620 C.3       1 CDD         0.0793
      9 F13        18.9660  -17.8240   26.5990 F         1 CDD        -0.2346
     10 F14        17.7360  -16.0050   26.7280 F         1 CDD        -0.2346
     11 N15        17.1580  -15.9350   24.1360 N.pl3     1 CDD        -0.2967
     12 C18        17.9180  -15.2540   23.1780 C.2       1 CDD         0.1882
     13 C19        17.2740  -14.0320   22.4940 C.2       1 CDD         0.2744
     14 N20        18.0090  -13.4450   21.5160 N.am      1 CDD        -0.1835
     15 C21        19.3550  -13.9470   21.1720 C.2       1 CDD         0.1556
     16 C22        19.9300  -15.0380   21.9380 C.2       1 CDD         0.0024
     17 N23        19.1980  -15.6190   22.9100 N.2       1 CDD        -0.3103
     18 C24        17.5460  -12.2610   20.7780 C.3       1 CDD         0.1518
     19 C25        16.0670  -12.3310   20.4100 C.2       1 CDD         0.2092
     20 N28        15.2870  -11.4840   21.1270 N.am      1 CDD        -0.2739
     21 C29        13.8690  -11.4110   20.7680 C.3       1 CDD         0.0654
     22 C30        12.9150  -11.4250   21.9620 C.ar      1 CDD         0.0127
     23 C33        12.9000  -10.3750   22.8950 C.ar      1 CDD        -0.0601
     24 C34        12.0190  -10.4350   24.0000 C.ar      1 CDD        -0.0725
     25 C35        11.1120  -11.4930   24.1370 C.ar      1 CDD        -0.0706
     26 C2         11.1250  -12.5320   23.2100 C.ar      1 CDD        -0.0348
     27 C37        12.0370  -12.4940   22.1420 C.ar      1 CDD         0.1350
     28 O42        16.1420  -13.6640   22.8260 O.2       1 CDD        -0.3904
     29 CL43       20.2420  -13.2370   19.8930 Cl        1 CDD        -0.0299
     30 O44        15.6570  -13.1090   19.5420 O.2       1 CDD        -0.3938
     31 F1         12.1890  -13.5200   21.2880 F         1 CDD        -0.1890
     32 O1         20.9520  -17.7700   24.8070 O.2       1 CDD        -0.1206
     33 H1         22.9688  -16.2327   24.6903 H         1 CDD         0.1770
     34 H2         18.9377  -14.1230   26.5387 H         1 CDD         0.1883
     35 H3         20.9764  -12.7678   26.2455 H         1 CDD         0.1434
     36 H4         23.0457  -13.8629   25.3986 H         1 CDD         0.1184
     37 H5         17.2309  -17.9112   24.8454 H         1 CDD         0.0504
     38 H6         18.6751  -17.3727   23.9229 H         1 CDD         0.0504
     39 H7         16.2051  -15.6752   24.4281 H         1 CDD         0.1840
     40 H8         20.9416  -15.3834   21.7298 H         1 CDD         0.0435
     41 H9         18.1340  -12.1722   19.8526 H         1 CDD         0.0868
     42 H10        17.7102  -11.3712   21.4036 H         1 CDD         0.0868
     43 H11        15.6647  -10.9320   21.8704 H         1 CDD         0.1877
     44 H12        13.6313  -12.2730   20.1274 H         1 CDD         0.0675
     45 H13        13.7036  -10.4799   20.2062 H         1 CDD         0.0675
     46 H14        13.5595   -9.5240   22.7689 H         1 CDD         0.0546
     47 H15        12.0463   -9.6526   24.7498 H         1 CDD         0.0565
     48 H16        10.4050  -11.5031   24.9586 H         1 CDD         0.0549
     49 H17        10.4370  -13.3635   23.3116 H         1 CDD         0.0585
@<TRIPOS>BOND
     1    1    2 ar 
     2    1    6 ar 
     3    2    3 ar 
     4    2   32 2  
     5    3    4 ar 
     6    3    7 1  
     7    4    5 ar 
     8    5    6 ar 
     9    7    8 1  
    10    7    9 1  
    11    7   10 1  
    12    8   11 1  
    13   11   12 1  
    14   12   13 1  
    15   12   17 2  
    16   13   14 am 
    17   13   28 2  
    18   14   15 am 
    19   14   18 1  
    20   15   16 2  
    21   15   29 1  
    22   16   17 1  
    23   18   19 1  
    24   19   20 am 
    25   19   30 2  
    26   20   21 1  
    27   21   22 1  
    28   22   23 ar 
    29   22   27 ar 
    30   23   24 ar 
    31   24   25 ar 
    32   25   26 ar 
    33   26   27 ar 
    34   27   31 1  
    35    1   33 1  
    36    4   34 1  
    37    5   35 1  
    38    6   36 1  
    39    8   37 1  
    40    8   38 1  
    41   11   39 1  
    42   16   40 1  
    43   18   41 1  
    44   18   42 1  
    45   20   43 1  
    46   21   44 1  
    47   21   45 1  
    48   23   46 1  
    49   24   47 1  
    50   25   48 1  
    51   26   49 1  
@<TRIPOS>SUBSTRUCTURE
     1 CDD         1

