### 
### Created by X-TOOL on Fri Sep 26 17:34:45 2014
### 

@<TRIPOS>MOLECULE
2we3_ligand
   39    40     1     0     0
SMALL
GAST_HUCK


@<TRIPOS>ATOM
      1 N1         26.0370   16.9220    4.4070 N.am      1 DUT        -0.1618
      2 C2         25.2210   17.1540    3.2730 C.2       1 DUT         0.3327
      3 N3         25.7370   17.0960    2.0120 N.am      1 DUT        -0.1865
      4 C4         27.0360   16.7770    1.8290 C.2       1 DUT         0.1822
      5 C5         27.8720   16.5580    2.9280 C.2       1 DUT         0.0062
      6 C6         27.3330   16.6370    4.1980 C.2       1 DUT         0.0590
      7 O2         24.0290   17.4260    3.4090 O.2       1 DUT        -0.3815
      8 O4         27.5600   16.7420    0.5890 O.2       1 DUT        -0.4124
      9 C1'        25.5140   16.9950    5.7970 C.3       1 DUT         0.1800
     10 C2'        25.6350   15.6700    6.5560 C.3       1 DUT         0.0316
     11 C3'        26.8000   15.8790    7.5280 C.3       1 DUT         0.0890
     12 C4'        26.7820   17.3900    7.7660 C.3       1 DUT         0.1163
     13 O4'        26.2470   17.9720    6.5700 O.3       1 DUT        -0.3387
     14 O3'        26.6440   15.1020    8.7370 O.3       1 DUT        -0.3890
     15 C5'        28.1600   18.0070    8.0590 C.3       1 DUT         0.1130
     16 O5'        28.9830   17.7640    6.9160 O.3       1 DUT        -0.2441
     17 PA         30.5570   17.9530    7.0140 P.3       1 DUT         0.3266
     18 O1A        31.1600   17.6740    5.6660 O.co2     1 DUT        -0.5692
     19 O2A        30.9860   17.2130    8.2280 O.co2     1 DUT        -0.5692
     20 O3A        30.5610   19.5620    7.3290 O.3       1 DUT        -0.1171
     21 PB         31.7000   20.4010    8.1790 P.3       1 DUT         0.3553
     22 O1B        32.1940   21.5020    7.3180 O.co2     1 DUT        -0.5652
     23 O2B        32.7010   19.4460    8.7320 O.co2     1 DUT        -0.5652
     24 O3B        30.7670   21.0110    9.3380 O.3       1 DUT        -0.1546
     25 PG         30.5960   20.3410   10.7980 P.3       1 DUT         0.1879
     26 O1G        31.7480   20.9270   11.5690 O.co2     1 DUT        -0.6091
     27 O2G        30.6300   18.8160   10.6540 O.co2     1 DUT        -0.6091
     28 O3G        29.2500   20.7470   11.3050 O.co2     1 DUT        -0.6091
     29 H1         25.1535   17.2897    1.2233 H         1 DUT         0.2259
     30 H2         28.9273   16.3296    2.7860 H         1 DUT         0.0258
     31 H3         27.9795   16.4626    5.0568 H         1 DUT         0.1178
     32 H4         24.4540   17.2851    5.7491 H         1 DUT         0.0970
     33 H5         25.8530   14.8448    5.8621 H         1 DUT         0.0345
     34 H6         24.7071   15.4521    7.1050 H         1 DUT         0.0345
     35 H7         27.7481   15.5863    7.0531 H         1 DUT         0.0622
     36 H8         26.1201   17.6077    8.6172 H         1 DUT         0.0650
     37 H9         26.6636   14.1768    8.5222 H         1 DUT         0.2099
     38 H10        28.6025   17.5359    8.9491 H         1 DUT         0.0648
     39 H11        28.0602   19.0893    8.2283 H         1 DUT         0.0648
@<TRIPOS>BOND
     1    1    2 am 
     2    1    6 1  
     3    1    9 1  
     4    2    3 am 
     5    2    7 2  
     6    3    4 am 
     7    4    5 1  
     8    4    8 2  
     9    5    6 2  
    10    9   10 1  
    11    9   13 1  
    12   10   11 1  
    13   11   12 1  
    14   11   14 1  
    15   12   13 1  
    16   12   15 1  
    17   15   16 1  
    18   16   17 1  
    19   17   18 ar 
    20   17   19 ar 
    21   17   20 1  
    22   20   21 1  
    23   21   22 ar 
    24   21   23 ar 
    25   21   24 1  
    26   24   25 1  
    27   25   26 ar 
    28   25   27 ar 
    29   25   28 ar 
    30    3   29 1  
    31    5   30 1  
    32    6   31 1  
    33    9   32 1  
    34   10   33 1  
    35   10   34 1  
    36   11   35 1  
    37   12   36 1  
    38   14   37 1  
    39   15   38 1  
    40   15   39 1  
@<TRIPOS>SUBSTRUCTURE
     1 DUT         1

