REMARK  6 active torsions:
REMARK  status: ('A' for Active; 'I' for Inactive)
REMARK    1  A    between atoms: O5'_1  and  C5'_2 
REMARK    2  A    between atoms: C5'_2  and  C4'_3 
REMARK    3  A    between atoms: C3'_5  and  O3'_6 
REMARK    4  A    between atoms: C2'_7  and  O2'_8 
REMARK    5  A    between atoms: C1'_9  and  C9_10 
REMARK    6  A    between atoms: C2_18  and  N2_17 
ROOT
ATOM      1  C9  IMG d         -66.369  90.742  93.876  0.00  0.00     0.022 A 
ATOM      2  C8  IMG d         -67.647  91.032  94.155  0.00  0.00     0.100 A 
ATOM      3  N7  IMG d         -67.901  92.414  93.843  0.00  0.00    -0.359 N 
ATOM      4  C5  IMG d         -66.663  92.903  93.371  0.00  0.00     0.131 A 
ATOM      5  C6  IMG d         -66.387  94.271  92.902  0.00  0.00     0.288 A 
ATOM      6  O6  IMG d         -67.128  95.267  92.889  0.00  0.00    -0.265 OA
ATOM      7  N1  IMG d         -65.070  94.336  92.508  0.00  0.00    -0.153 N 
ATOM      8  C2  IMG d         -64.139  93.300  92.520  0.00  0.00     0.701 A 
ATOM      9  N3  IMG d         -64.469  92.093  92.949  0.00  0.00    -0.062 NA
ATOM     10  C4  IMG d         -65.733  91.940  93.361  0.00  0.00     0.118 A 
ATOM     11  H13 IMG d         -68.787  92.930  93.942  0.00  0.00     0.165 HD
ATOM     12  H14 IMG d         -64.746  95.223  92.177  0.00  0.00     0.187 HD
ENDROOT
BRANCH   1  13
ATOM     13  C1' IMG d         -65.664  89.291  94.080  0.00  0.00     0.254 C 
ATOM     14  N4' IMG d         -66.087  88.744  95.366  0.00  0.00    -0.055 N 
ATOM     15  C4' IMG d         -65.023  88.898  96.361  0.00  0.00     0.241 C 
ATOM     16  H5  IMG d         -66.910  89.234  95.681  0.00  0.00     0.278 HD
ATOM     17  H6  IMG d         -66.300  87.765  95.257  0.00  0.00     0.278 HD
ATOM     18  C3' IMG d         -63.713  88.806  95.510  0.00  0.00     0.182 C 
ATOM     19  C2' IMG d         -64.121  89.351  94.098  0.00  0.00     0.184 C 
BRANCH  15  20
ATOM     20  C5' IMG d         -65.386  90.255  97.023  0.00  0.00     0.199 C 
BRANCH  20  21
ATOM     21  O5' IMG d         -66.690  90.381  97.605  0.00  0.00    -0.399 OA
ATOM     22  H1  IMG d         -66.788  91.251  97.974  0.00  0.00     0.209 HD
ENDBRANCH  20  21
ENDBRANCH  15  20
BRANCH  18  23
ATOM     23  O3' IMG d         -63.189  87.458  95.344  0.00  0.00    -0.391 OA
ATOM     24  H8  IMG d         -62.398  87.489  94.819  0.00  0.00     0.210 HD
ENDBRANCH  18  23
BRANCH  19  25
ATOM     25  O2' IMG d         -63.597  88.538  93.040  0.00  0.00    -0.390 OA
ATOM     26  H10 IMG d         -63.932  87.653  93.126  0.00  0.00     0.210 HD
ENDBRANCH  19  25
ENDBRANCH   1  13
BRANCH   8  27
ATOM     27  N2  IMG d         -62.904  93.518  91.937  0.00  0.00    -0.233 N 
ATOM     28  H15 IMG d         -62.197  92.769  91.932  0.00  0.00     0.174 HD
ATOM     29  H16 IMG d         -62.691  94.430  91.508  0.00  0.00     0.174 HD
ENDBRANCH   8  27
TORSDOF 6
