### 
### Created by X-TOOL on Fri Sep 26 17:34:14 2014
### 

@<TRIPOS>MOLECULE
1hfs_ligand
   99   103     1     0     0
SMALL
GAST_HUCK


@<TRIPOS>ATOM
      1 C1         32.9150   37.5740   23.1970 C.3       1 L04        -0.0384
      2 C2         32.6320   36.2230   23.8700 C.3       1 L04         0.0141
      3 C3         32.1460   36.3930   25.3140 C.2       1 L04         0.0380
      4 C4         37.6910   41.4960   22.8650 C.3       1 L04        -0.0625
      5 C5         38.6070   31.8190   30.3870 C.ar      1 L04        -0.0257
      6 C6         38.5270   32.1740   31.7300 C.ar      1 L04        -0.0571
      7 C7         35.1500   35.8090   24.3660 C.3       1 L04         0.0523
      8 C8         35.9020   34.7400   25.1640 C.3       1 L04        -0.0232
      9 C9         35.2310   34.3540   26.4550 C.3       1 L04        -0.0166
     10 C10        36.1280   33.6970   27.4580 C.ar      1 L04        -0.0424
     11 C11        36.1910   32.3140   27.5530 C.ar      1 L04        -0.0596
     12 C12        36.9950   31.7110   28.5020 C.ar      1 L04        -0.0610
     13 C13        37.7580   32.4750   29.3800 C.ar      1 L04        -0.0267
     14 C14        37.6990   33.8600   29.2850 C.ar      1 L04        -0.0610
     15 C15        36.8920   34.4630   28.3310 C.ar      1 L04        -0.0596
     16 C16        36.0400   36.2680   23.2200 C.2       1 L04         0.1816
     17 C17        39.3300   31.5500   32.6790 C.ar      1 L04        -0.0282
     18 C18        33.8250   35.2660   23.8320 C.3       1 L04        -0.0186
     19 C19        37.9420   37.6140   22.5420 C.3       1 L04         0.1369
     20 C20        38.2620   39.0930   22.7670 C.3       1 L04        -0.0096
     21 C21        37.1080   40.0990   22.7440 C.3       1 L04        -0.0425
     22 C22        36.2920   39.9630   21.4590 C.3       1 L04        -0.0625
     23 C23        31.7010   38.4800   23.0780 C.3       1 L04        -0.0495
     24 C24        32.0250   39.7350   22.2790 C.3       1 L04        -0.0323
     25 C25        30.9230   40.7780   22.3960 C.3       1 L04         0.0356
     26 C26        28.7070   39.8810   22.8380 C.2       1 L04         0.2046
     27 C27        39.2150   36.7850   22.6710 C.2       1 L04         0.2292
     28 C28        29.1300   40.2090   20.5500 C.3       1 L04         0.0703
     29 C29        27.5230   39.3830   22.1270 C.ar      1 L04         0.0535
     30 C30        40.7960   35.4580   21.3600 C.ar      1 L04         0.0663
     31 C31        41.0970   35.0520   20.0610 C.ar      1 L04        -0.0413
     32 C32        42.2180   34.2710   19.7960 C.ar      1 L04        -0.0755
     33 C33        43.0540   33.8830   20.8370 C.ar      1 L04        -0.0772
     34 C34        42.7660   34.2820   22.1420 C.ar      1 L04        -0.0755
     35 C35        41.6420   35.0640   22.3960 C.ar      1 L04        -0.0413
     36 C36        27.7580   39.5650   20.7400 C.ar      1 L04        -0.0003
     37 C37        26.3330   38.7800   22.5590 C.ar      1 L04        -0.0484
     38 C38        26.7980   39.1400   19.8130 C.ar      1 L04        -0.0524
     39 C39        25.6260   38.5430   20.2680 C.ar      1 L04        -0.0641
     40 C40        25.3990   38.3650   21.6220 C.ar      1 L04        -0.0630
     41 C41        40.2150   30.5500   32.3010 C.ar      1 L04         0.1322
     42 C42        40.3030   30.2010   30.9610 C.ar      1 L04        -0.0282
     43 C43        39.5070   30.8280   30.0120 C.ar      1 L04        -0.0571
     44 N1         29.6230   40.2980   21.9300 N.am      1 L04        -0.2613
     45 N18        37.0020   37.1270   23.5410 N.am      1 L04        -0.2649
     46 N29        39.6720   36.2400   21.5430 N.am      1 L04        -0.2320
     47 O1         28.8620   39.8810   24.0620 O.2       1 L04        -0.3882
     48 O4         31.2640   35.6240   25.7050 O.co2     1 L04        -0.5687
     49 O5         32.6250   37.2370   26.1150 O.co2     1 L04        -0.5687
     50 O17        35.8610   35.8530   22.0720 O.2       1 L04        -0.3966
     51 O28        39.7240   36.5970   23.7790 O.2       1 L04        -0.3823
     52 F1         40.9820   29.9220   33.2160 F         1 L04        -0.1835
     53 H1         33.6803   38.0992   23.7873 H         1 L04         0.0286
     54 H2         33.3010   37.3806   22.1853 H         1 L04         0.0286
     55 H3         31.8178   35.7497   23.3017 H         1 L04         0.0467
     56 H4         36.8769   42.2356   22.8505 H         1 L04         0.0232
     57 H5         38.3718   41.6836   22.0216 H         1 L04         0.0232
     58 H6         38.2466   41.5809   23.8106 H         1 L04         0.0232
     59 H7         37.8313   32.9453   32.0401 H         1 L04         0.0606
     60 H8         34.9389   36.6650   25.0237 H         1 L04         0.0541
     61 H9         36.9056   35.1250   25.3976 H         1 L04         0.0315
     62 H10        35.9910   33.8399   24.5380 H         1 L04         0.0315
     63 H11        34.4126   33.6576   26.2202 H         1 L04         0.0430
     64 H12        34.8174   35.2654   26.9114 H         1 L04         0.0430
     65 H13        35.6049   31.7015   26.8774 H         1 L04         0.0559
     66 H14        37.0317   30.6293   28.5631 H         1 L04         0.0604
     67 H15        38.2864   34.4724   29.9596 H         1 L04         0.0604
     68 H16        36.8568   35.5445   28.2656 H         1 L04         0.0559
     69 H17        39.2642   31.8464   33.7196 H         1 L04         0.0604
     70 H18        33.9829   34.9696   22.7845 H         1 L04         0.0313
     71 H19        33.5621   34.3798   24.4283 H         1 L04         0.0313
     72 H20        37.5128   37.4862   21.5373 H         1 L04         0.0805
     73 H21        38.9724   39.3950   21.9834 H         1 L04         0.0315
     74 H22        38.7455   39.1751   23.7516 H         1 L04         0.0315
     75 H23        36.4467   39.9084   23.6021 H         1 L04         0.0298
     76 H24        35.8800   38.9452   21.3923 H         1 L04         0.0232
     77 H25        36.9403   40.1538   20.5910 H         1 L04         0.0232
     78 H26        35.4683   40.6920   21.4688 H         1 L04         0.0232
     79 H27        31.3713   38.7719   24.0860 H         1 L04         0.0267
     80 H28        30.8926   37.9317   22.5722 H         1 L04         0.0267
     81 H29        32.1462   39.4620   21.2203 H         1 L04         0.0285
     82 H30        32.9643   40.1652   22.6566 H         1 L04         0.0285
     83 H31        31.2070   41.6553   21.7963 H         1 L04         0.0523
     84 H32        30.8294   41.0705   23.4522 H         1 L04         0.0523
     85 H33        29.7852   39.5774   19.9321 H         1 L04         0.0699
     86 H34        29.0431   41.2054   20.0922 H         1 L04         0.0699
     87 H35        40.4482   35.3490   19.2450 H         1 L04         0.0502
     88 H36        42.4390   33.9657   18.7796 H         1 L04         0.0577
     89 H37        43.9266   33.2725   20.6350 H         1 L04         0.0487
     90 H38        43.4157   33.9840   22.9569 H         1 L04         0.0577
     91 H39        41.4219   35.3704   23.4123 H         1 L04         0.0502
     92 H40        26.1447   38.6394   23.6172 H         1 L04         0.0651
     93 H41        26.9663   39.2748   18.7507 H         1 L04         0.0569
     94 H42        24.8812   38.2131   19.5528 H         1 L04         0.0635
     95 H43        24.4800   37.8955   21.9537 H         1 L04         0.0572
     96 H44        41.0004   29.4309   30.6519 H         1 L04         0.0604
     97 H45        39.5879   30.5423   28.9694 H         1 L04         0.0606
     98 H46        37.0815   37.4445   24.4859 H         1 L04         0.1883
     99 H47        39.1302   36.4211   20.7222 H         1 L04         0.2257
@<TRIPOS>BOND
     1    1   23 1  
     2    1    2 1  
     3    2   18 1  
     4    2    3 1  
     5    3   49 ar 
     6    3   48 ar 
     7   18    7 1  
     8    7   16 1  
     9    7    8 1  
    10    8    9 1  
    11    9   10 1  
    12   10   15 ar 
    13   10   11 ar 
    14   11   12 ar 
    15   12   13 ar 
    16   13   14 ar 
    17   13    5 1  
    18    5   43 ar 
    19    5    6 ar 
    20    6   17 ar 
    21   17   41 ar 
    22   41   42 ar 
    23   42   43 ar 
    24   14   15 ar 
    25   16   50 2  
    26   16   45 am 
    27   45   19 1  
    28   19   27 1  
    29   19   20 1  
    30   20   21 1  
    31   21    4 1  
    32   21   22 1  
    33   27   51 2  
    34   27   46 am 
    35   46   30 1  
    36   30   35 ar 
    37   30   31 ar 
    38   31   32 ar 
    39   32   33 ar 
    40   33   34 ar 
    41   34   35 ar 
    42   23   24 1  
    43   24   25 1  
    44   25   44 1  
    45   44   28 1  
    46   44   26 am 
    47   26   47 2  
    48   26   29 1  
    49   29   37 ar 
    50   29   36 ar 
    51   36   28 1  
    52   36   38 ar 
    53   38   39 ar 
    54   39   40 ar 
    55   40   37 ar 
    56   41   52 1  
    57    1   53 1  
    58    1   54 1  
    59    2   55 1  
    60    4   56 1  
    61    4   57 1  
    62    4   58 1  
    63    6   59 1  
    64    7   60 1  
    65    8   61 1  
    66    8   62 1  
    67    9   63 1  
    68    9   64 1  
    69   11   65 1  
    70   12   66 1  
    71   14   67 1  
    72   15   68 1  
    73   17   69 1  
    74   18   70 1  
    75   18   71 1  
    76   19   72 1  
    77   20   73 1  
    78   20   74 1  
    79   21   75 1  
    80   22   76 1  
    81   22   77 1  
    82   22   78 1  
    83   23   79 1  
    84   23   80 1  
    85   24   81 1  
    86   24   82 1  
    87   25   83 1  
    88   25   84 1  
    89   28   85 1  
    90   28   86 1  
    91   31   87 1  
    92   32   88 1  
    93   33   89 1  
    94   34   90 1  
    95   35   91 1  
    96   37   92 1  
    97   38   93 1  
    98   39   94 1  
    99   40   95 1  
   100   42   96 1  
   101   43   97 1  
   102   45   98 1  
   103   46   99 1  
@<TRIPOS>SUBSTRUCTURE
     1 L04         1

