### 
### Created by X-TOOL on Sun Nov 13 14:27:21 2016
### 

@<TRIPOS>MOLECULE
4ra1_ligand
   27    27     1     0     0
SMALL
GAST_HUCK


@<TRIPOS>ATOM
      1 C1        -16.2530  -27.4870   17.1550 C.3       1 ALX         0.1902
      2 O1        -15.9300  -26.2620   16.5930 O.3       1 ALX        -0.3646
      3 O2        -15.7010  -26.6310   19.3030 O.3       1 ALX        -0.2652
      4 C2        -15.5350  -27.7140   18.4590 C.3       1 ALX         0.1676
      5 C3        -14.0750  -28.0290   18.2680 C.3       1 ALX         0.1188
      6 C5        -14.6450  -28.6910   15.9580 C.3       1 ALX         0.1130
      7 C6        -14.5130  -29.7370   14.8970 C.3       1 ALX         0.0730
      8 OAN       -17.3250  -25.3390   20.7310 O.co2     1 ALX        -0.5537
      9 PAM       -16.6550  -26.6620   20.5550 P.3       1 ALX         0.2014
     10 OAO       -17.7260  -27.6950   20.5090 O.co2     1 ALX        -0.5537
     11 OAP       -15.9010  -26.9430   21.8190 O.co2     1 ALX        -0.5537
     12 O3        -13.4690  -28.4450   19.4550 O.3       1 ALX        -0.3861
     13 C4        -13.8560  -29.0490   17.1890 C.3       1 ALX         0.1122
     14 O4        -12.5080  -29.0900   16.8900 O.3       1 ALX        -0.3865
     15 O6        -14.9650  -31.0020   15.1910 O.3       1 ALX        -0.3924
     16 O5        -15.9910  -28.5080   16.2610 O.3       1 ALX        -0.3404
     17 H1        -17.3329  -27.4871   17.3640 H         1 ALX         0.0939
     18 H2        -16.4481  -26.1285   15.8080 H         1 ALX         0.2126
     19 H3        -15.9980  -28.5876   18.9411 H         1 ALX         0.0727
     20 H4        -13.5803  -27.0991   17.9510 H         1 ALX         0.0651
     21 H5        -14.2464  -27.7452   15.5625 H         1 ALX         0.0647
     22 H6        -13.4450  -29.8190   14.6466 H         1 ALX         0.0584
     23 H7        -15.0701  -29.3848   14.0164 H         1 ALX         0.0584
     24 H8        -12.5522  -28.6331   19.2922 H         1 ALX         0.2100
     25 H9        -14.1811  -30.0361   17.5495 H         1 ALX         0.0647
     26 H10       -12.0181  -29.3164   17.6718 H         1 ALX         0.2100
     27 H11       -14.4881  -31.3415   15.9392 H         1 ALX         0.2095
@<TRIPOS>BOND
     1    1    2 1  
     2    4    1 1  
     3    1   16 1  
     4    4    3 1  
     5    3    9 1  
     6    5    4 1  
     7    5   12 1  
     8   13    5 1  
     9    6    7 1  
    10    6   13 1  
    11    6   16 1  
    12    7   15 1  
    13    9    8 ar 
    14    9   10 ar 
    15    9   11 ar 
    16   13   14 1  
    17    1   17 1  
    18    2   18 1  
    19    4   19 1  
    20    5   20 1  
    21    6   21 1  
    22    7   22 1  
    23    7   23 1  
    24   12   24 1  
    25   13   25 1  
    26   14   26 1  
    27   15   27 1  
@<TRIPOS>SUBSTRUCTURE
     1 ALX         1

