2o4p_ligand

Created by X-TOOL on Fri Sep 26 17:34:33 2014
 75 78  0  0  0  0  0  0  0  0999 V2000
   13.6940   22.0290   16.5860  O 0  0  0  1  0  2
   12.4450   21.3450   16.8100  C 0  0  0  1  0  3
   12.4600   20.0390   17.4770  C 0  0  0  1  0  3
   13.6860   19.5000   17.7840  C 0  0  0  1  0  3
   15.0150   20.1740   17.4840  C 0  0  0  3  0  4
   14.9040   21.6890   17.2540  C 0  0  0  1  0  4
   11.4360   21.8930   16.4140  O 0  0  0  1  0  1
   13.8160   18.3200   18.3550  O 0  0  0  2  0  2
   14.8370   22.2820   18.6830  C 0  0  0  3  0  4
   15.2090   23.7360   18.8770  C 0  0  0  3  0  4
   15.1790   24.0350   20.3650  C 0  0  0  4  0  4
   16.0530   22.2100   16.3850  C 0  0  0  3  0  4
   16.0850   21.7480   14.9010  C 0  0  0  3  0  4
   17.2110   22.5020   14.1730  C 0  0  0  1  0  3
   16.9200   23.6110   13.3770  C 0  0  0  2  0  3
   17.9730   24.2740   12.7280  C 0  0  0  2  0  3
   19.3070   23.8590   12.8950  C 0  0  0  2  0  3
   19.6000   22.7600   13.6920  C 0  0  0  2  0  3
   18.5490   22.0790   14.2970  C 0  0  0  2  0  3
   11.0990   19.3940   17.7140  C 0  0  0  2  0  4
   10.8720   18.7230   19.0910  C 0  0  0  3  0  4
   11.0610   19.6620   20.2900  C 0  0  0  4  0  4
   10.7490   18.4410   16.6240  C 0  0  0  1  0  3
   11.6810   17.8550   15.7750  C 0  0  0  2  0  3
   11.2710   16.9740   14.7660  C 0  0  0  2  0  3
    9.9140   16.6820   14.6130  C 0  0  0  2  0  3
    8.9630   17.2540   15.4560  C 0  0  0  1  0  3
    7.6170   16.9830   15.3240  N 0  0  0  2  0  3
    9.3950   18.1330   16.4430  C 0  0  0  2  0  3
    7.0060   15.6130   15.8950  S 0  0  0  1  0  4
    7.8350   14.5030   15.4400  O 0  0  0  1  0  1
    5.6300   15.4630   15.4740  O 0  0  0  1  0  1
    7.1150   15.8600   17.4940  C 0  0  0  1  0  3
    8.1990   15.4390   18.2020  N 0  0  0  1  0  2
    8.3130   15.7160   19.5290  C 0  0  0  2  0  3
    7.3350   16.4380   20.2360  C 0  0  0  1  0  3
    6.2270   16.9090   19.5160  C 0  0  0  2  0  3
    6.1380   16.6190   18.1520  C 0  0  0  2  0  3
    7.4870   16.7890   21.7000  C 0  0  0  1  0  4
    7.9660   15.8230   22.4870  F 0  0  0  1  0  1
    6.3480   17.2330   22.1870  F 0  0  0  1  0  1
    8.3380   17.8100   21.7340  F 0  0  0  1  0  1
   15.4395   19.7160   16.5785  H 0  0  0  1  0  1
   15.6913   20.0010   18.3341  H 0  0  0  1  0  1
   12.9556   17.9512   18.5167  H 0  0  0  1  0  1
   15.5128   21.6864   19.3143  H 0  0  0  1  0  1
   13.8027   22.1610   19.0372  H 0  0  0  1  0  1
   14.4867   24.3790   18.3527  H 0  0  0  1  0  1
   16.2184   23.9190   18.4801  H 0  0  0  1  0  1
   15.4466   25.0887   20.5327  H 0  0  0  1  0  1
   15.9002   23.3865   20.8839  H 0  0  0  1  0  1
   14.1685   23.8466   20.7566  H 0  0  0  1  0  1
   16.9948   21.8872   16.8528  H 0  0  0  1  0  1
   15.9994   23.3087   16.3888  H 0  0  0  1  0  1
   15.1202   21.9723   14.4227  H 0  0  0  1  0  1
   16.2744   20.6654   14.8545  H 0  0  0  1  0  1
   15.8982   23.9543   13.2621  H 0  0  0  1  0  1
   17.7548   25.1205   12.0870  H 0  0  0  1  0  1
   20.1073   24.3979   12.4008  H 0  0  0  1  0  1
   20.6252   22.4401   13.8393  H 0  0  0  1  0  1
   18.7666   21.1936   14.8833  H 0  0  0  1  0  1
   10.3723   20.2180   17.6608  H 0  0  0  1  0  1
   11.5839   17.8903   19.1900  H 0  0  0  1  0  1
    9.8442   18.3319   19.1184  H 0  0  0  1  0  1
   10.8817   19.1067   21.2224  H 0  0  0  1  0  1
   10.3485   20.4970   20.2177  H 0  0  0  1  0  1
   12.0882   20.0554   20.2893  H 0  0  0  1  0  1
   12.7342   18.0818   15.8949  H 0  0  0  1  0  1
   12.0033   16.5213   14.1074  H 0  0  0  1  0  1
    9.5968   16.0029   13.8299  H 0  0  0  1  0  1
    7.0188   17.6435   14.8702  H 0  0  0  1  0  1
    8.6604   18.5945   17.0929  H 0  0  0  1  0  1
    9.1905   15.3671   20.0613  H 0  0  0  1  0  1
    5.4539   17.4874   20.0088  H 0  0  0  1  0  1
    5.2905   16.9911   17.5878  H 0  0  0  1  0  1
  1  2  1  0  0  1
  1  6  1  0  0  1
  2  3  1  0  0  1
  2  7  2  0  0  2
  3  4  2  0  0  1
  3 20  1  0  0  2
  4  5  1  0  0  1
  4  8  1  0  0  2
  5  6  1  0  0  1
  6  9  1  0  0  2
  6 12  1  0  0  2
  9 10  1  0  0  2
 10 11  1  0  0  2
 12 13  1  0  0  2
 13 14  1  0  0  2
 14 15  4  0  0  1
 14 19  4  0  0  1
 15 16  4  0  0  1
 16 17  4  0  0  1
 17 18  4  0  0  1
 18 19  4  0  0  1
 20 21  1  0  0  2
 20 23  1  0  0  2
 21 22  1  0  0  2
 23 24  4  0  0  1
 23 29  4  0  0  1
 24 25  4  0  0  1
 25 26  4  0  0  1
 26 27  4  0  0  1
 27 28  1  0  0  2
 27 29  4  0  0  1
 28 30  1  0  0  2
 30 31  2  0  0  2
 30 32  2  0  0  2
 30 33  1  0  0  2
 33 34  4  0  0  1
 33 38  4  0  0  1
 34 35  4  0  0  1
 35 36  4  0  0  1
 36 37  4  0  0  1
 36 39  1  0  0  2
 37 38  4  0  0  1
 39 40  1  0  0  2
 39 41  1  0  0  2
 39 42  1  0  0  2
  5 43  1  0  0  2
  5 44  1  0  0  2
  8 45  1  0  0  2
  9 46  1  0  0  2
  9 47  1  0  0  2
 10 48  1  0  0  2
 10 49  1  0  0  2
 11 50  1  0  0  2
 11 51  1  0  0  2
 11 52  1  0  0  2
 12 53  1  0  0  2
 12 54  1  0  0  2
 13 55  1  0  0  2
 13 56  1  0  0  2
 15 57  1  0  0  2
 16 58  1  0  0  2
 17 59  1  0  0  2
 18 60  1  0  0  2
 19 61  1  0  0  2
 20 62  1  0  0  2
 21 63  1  0  0  2
 21 64  1  0  0  2
 22 65  1  0  0  2
 22 66  1  0  0  2
 22 67  1  0  0  2
 24 68  1  0  0  2
 25 69  1  0  0  2
 26 70  1  0  0  2
 28 71  1  0  0  2
 29 72  1  0  0  2
 35 73  1  0  0  2
 37 74  1  0  0  2
 38 75  1  0  0  2
M  END
> <MOLECULAR_FORMULA>
C31H33N2O5SF3

> <MOLECULAR_WEIGHT>
602.4

> <NUM_HB_ATOMS>
7  

> <NUM_ROTOR>
9  

> <XLOGP2>
6.95 

$$$$
