### 
### Created by X-TOOL on Fri Sep 26 17:34:39 2014
### 

@<TRIPOS>MOLECULE
2pqc_ligand
   35    35     1     0     0
SMALL
GAST_HUCK


@<TRIPOS>ATOM
      1 C1       -127.4420   32.1270  127.3300 C.2       1 RC1        -0.0206
      2 C2       -127.1060   32.5990  125.9920 C.2       1 RC1        -0.0423
      3 C3       -128.1620   32.5360  124.8600 C.3       1 RC1         0.1415
      4 C4       -129.5960   32.5890  125.4260 C.3       1 RC1         0.1215
      5 C5       -129.7950   31.4570  126.4680 C.3       1 RC1         0.0970
      6 C6       -128.7560   31.5780  127.6310 C.3       1 RC1         0.0036
      7 C7       -126.3830   32.2050  128.4020 C.2       1 RC1         0.0477
      8 O1       -127.9790   31.3100  124.0410 O.3       1 RC1        -0.2592
      9 O2       -130.5180   32.4700  124.3250 O.3       1 RC1        -0.3840
     10 O3       -131.1530   31.4620  127.0060 O.3       1 RC1        -0.3472
     11 O4       -125.2190   32.1160  128.0350 O.co2     1 RC1        -0.5666
     12 O5       -126.7150   32.2950  129.5800 O.co2     1 RC1        -0.5666
     13 P1       -127.1220   31.2190  122.7270 P.3       1 RC1         0.2044
     14 O6       -125.6880   31.1760  123.1160 O.co2     1 RC1        -0.5536
     15 O7       -127.4050   32.4290  121.9230 O.co2     1 RC1        -0.5536
     16 O8       -127.4670   29.9840  121.9820 O.co2     1 RC1        -0.5536
     17 C8       -131.7990   30.1520  126.6990 C.3       1 RC1         0.1809
     18 C9       -132.0900   29.8260  125.2230 C.3       1 RC1        -0.0150
     19 C10      -130.9950   28.9580  127.3080 C.2       1 RC1         0.0931
     20 O9       -130.6980   27.9760  126.5770 O.co2     1 RC1        -0.5436
     21 O10      -130.6680   29.0240  128.4990 O.co2     1 RC1        -0.5436
     22 P2       -133.3300   30.3460  127.6500 P.3       1 RC1         0.0960
     23 O11      -134.4510   30.8250  126.7170 O.co2     1 RC1        -0.5608
     24 O12      -133.1450   31.3290  128.7990 O.co2     1 RC1        -0.5608
     25 O13      -133.6140   28.9120  128.1030 O.co2     1 RC1        -0.5608
     26 H1       -126.1126   32.9959  125.7883 H         1 RC1         0.0595
     27 H2       -128.0175   33.4110  124.2093 H         1 RC1         0.0831
     28 H3       -129.7560   33.5569  125.9236 H         1 RC1         0.0674
     29 H4       -129.6317   30.4953  125.9596 H         1 RC1         0.0643
     30 H5       -129.2064   32.2175  128.4044 H         1 RC1         0.0411
     31 H6       -128.6013   30.5669  128.0355 H         1 RC1         0.0411
     32 H7       -130.3841   31.6362  123.8900 H         1 RC1         0.2103
     33 H8       -131.1410   29.7155  124.6779 H         1 RC1         0.0264
     34 H9       -132.6766   30.6421  124.7760 H         1 RC1         0.0264
     35 H10      -132.6603   28.8875  125.1603 H         1 RC1         0.0264
@<TRIPOS>BOND
     1    1    2 2  
     2    1    6 1  
     3    1    7 1  
     4    2    3 1  
     5    3    4 1  
     6    3    8 1  
     7    4    5 1  
     8    4    9 1  
     9    5    6 1  
    10    5   10 1  
    11    7   11 ar 
    12    7   12 ar 
    13    8   13 1  
    14   10   17 1  
    15   13   14 ar 
    16   13   15 ar 
    17   13   16 ar 
    18   17   18 1  
    19   17   19 1  
    20   17   22 1  
    21   19   20 ar 
    22   19   21 ar 
    23   22   23 ar 
    24   22   24 ar 
    25   22   25 ar 
    26    2   26 1  
    27    3   27 1  
    28    4   28 1  
    29    5   29 1  
    30    6   30 1  
    31    6   31 1  
    32    9   32 1  
    33   18   33 1  
    34   18   34 1  
    35   18   35 1  
@<TRIPOS>SUBSTRUCTURE
     1 RC1         1

