### 
### Created by X-TOOL on Fri Sep 26 17:34:26 2014
### 

@<TRIPOS>MOLECULE
1u0g_ligand
   21    20     1     0     0
SMALL
GAST_HUCK


@<TRIPOS>ATOM
      1 C1          8.0180    2.4430   -0.0770 C.3       1 E4P         0.0726
      2 O1          9.1930    2.5960    0.7100 O.3       1 E4P        -0.3924
      3 C2          7.3640    3.7110   -0.5170 C.3       1 E4P         0.1065
      4 O2          8.4140    4.4790   -1.0640 O.3       1 E4P        -0.3869
      5 C3          6.7300    4.3930    0.6870 C.3       1 E4P         0.1108
      6 O3          5.6200    3.6230    1.1180 O.3       1 E4P        -0.3865
      7 C4          6.2260    5.7940    0.3300 C.3       1 E4P         0.1068
      8 O4          5.2880    5.7220   -0.7420 O.3       1 E4P        -0.2734
      9 P           4.8490    7.0110   -1.4150 P.3       1 E4P         0.2008
     10 O1P         4.3190    7.9470   -0.3660 O.co2     1 E4P        -0.5537
     11 O2P         6.0170    7.6460   -2.1060 O.co2     1 E4P        -0.5537
     12 O3P         3.7500    6.6700   -2.3850 O.co2     1 E4P        -0.5537
     13 H1          7.2866    1.8732    0.5149 H         1 E4P         0.0584
     14 H2          8.2864    1.8711   -0.9775 H         1 E4P         0.0584
     15 H3          9.8458    3.0744    0.2126 H         1 E4P         0.2095
     16 H4          6.5936    3.5149   -1.2773 H         1 E4P         0.0643
     17 H5          9.0731    4.6326   -0.3973 H         1 E4P         0.2100
     18 H6          7.4722    4.4661    1.4956 H         1 E4P         0.0646
     19 H7          4.9865    3.5604    0.4128 H         1 E4P         0.2100
     20 H8          7.0778    6.4200    0.0259 H         1 E4P         0.0639
     21 H9          5.7388    6.2399    1.2096 H         1 E4P         0.0639
@<TRIPOS>BOND
     1    1    2 1  
     2    1    3 1  
     3    3    4 1  
     4    3    5 1  
     5    5    6 1  
     6    5    7 1  
     7    7    8 1  
     8    8    9 1  
     9    9   10 ar 
    10    9   11 ar 
    11    9   12 ar 
    12    1   13 1  
    13    1   14 1  
    14    2   15 1  
    15    3   16 1  
    16    4   17 1  
    17    5   18 1  
    18    6   19 1  
    19    7   20 1  
    20    7   21 1  
@<TRIPOS>SUBSTRUCTURE
     1 E4P         1

