REMARK  13 active torsions:
REMARK  status: ('A' for Active; 'I' for Inactive)
REMARK    1  A    between atoms: CA_2  and  N_1 
REMARK    2  A    between atoms: C_3  and  CA_2 
REMARK    3  A    between atoms: CA_2  and  CB_5 
REMARK       I    between atoms: N_10  and  C_3 
REMARK    4  A    between atoms: CB_5  and  CG_6 
REMARK    5  A    between atoms: CG_6  and  CD_7 
REMARK    6  A    between atoms: CA_11  and  N_10 
REMARK    7  A    between atoms: C_12  and  CA_11 
REMARK    8  A    between atoms: CA_11  and  CB_14 
REMARK       I    between atoms: C_12  and  N_18 
REMARK    9  A    between atoms: CB_14  and  CG_15 
REMARK   10  A    between atoms: N_18  and  CA_19 
REMARK   11  A    between atoms: CA_19  and  C_20 
REMARK   12  A    between atoms: CA_19  and  CB_22 
REMARK   13  A    between atoms: CB_22  and  CG_23 
ROOT
ATOM      1  CA  MOL d           9.258  26.072   6.560  0.00  0.00     0.186 C 
ENDROOT
BRANCH   1   2
ATOM      2  C   MOL d          10.101  24.918   6.047  0.00  0.00     0.241 C 
ATOM      3  O   MOL d          10.182  23.864   6.682  0.00  0.00    -0.271 OA
ATOM      4  N   MOL d          10.686  25.115   4.869  0.00  0.00    -0.345 N 
ATOM      5  H13 MOL d          10.564  25.995   4.410  0.00  0.00     0.163 HD
BRANCH   4   6
ATOM      6  CA  MOL d          11.498  24.093   4.226  0.00  0.00     0.185 C 
BRANCH   6   7
ATOM      7  C   MOL d          12.984  24.399   4.268  0.00  0.00     0.196 C 
ATOM      8  OXT MOL d          13.334  25.592   4.378  0.00  0.00    -0.646 OA
ATOM      9  O   MOL d          13.784  23.442   4.192  0.00  0.00    -0.646 OA
ENDBRANCH   6   7
BRANCH   6  10
ATOM     10  CB  MOL d          11.038  23.922   2.785  0.00  0.00     0.040 C 
BRANCH  10  11
ATOM     11  CG  MOL d           9.583  23.466   2.770  0.00  0.00    -0.020 C 
ATOM     12  CD2 MOL d           9.521  21.955   2.602  0.00  0.00     0.009 C 
ATOM     13  CD1 MOL d           8.819  24.197   1.708  0.00  0.00     0.009 C 
ENDBRANCH  10  11
ENDBRANCH   6  10
ENDBRANCH   4   6
ENDBRANCH   1   2
BRANCH   1  14
ATOM     14  CB  MOL d           9.346  26.196   8.079  0.00  0.00     0.147 C 
BRANCH  14  15
ATOM     15  CG  MOL d           8.649  27.441   8.588  0.00  0.00     0.175 C 
ATOM     16  OD1 MOL d           9.270  28.518   8.521  0.00  0.00    -0.648 OA
ATOM     17  OD2 MOL d           7.474  27.357   9.012  0.00  0.00    -0.648 OA
ENDBRANCH  14  15
ENDBRANCH   1  14
BRANCH   1  18
ATOM     18  N   MOL d           7.873  25.856   6.163  0.00  0.00    -0.345 N 
ATOM     19  C   MOL d           7.174  26.772   5.504  0.00  0.00     0.249 C 
ATOM     20  O   MOL d           7.624  27.887   5.218  0.00  0.00    -0.271 OA
ATOM     21  H9  MOL d           7.434  24.988   6.395  0.00  0.00     0.163 HD
BRANCH  19  22
ATOM     22  CA  MOL d           5.733  26.394   5.165  0.00  0.00     0.275 C 
BRANCH  22  23
ATOM     23  CB  MOL d           5.638  25.818   3.750  0.00  0.00     0.053 C 
BRANCH  23  24
ATOM     24  CG  MOL d           5.827  26.846   2.652  0.00  0.00     0.115 C 
BRANCH  24  25
ATOM     25  CD  MOL d           5.625  26.275   1.262  0.00  0.00     0.172 C 
ATOM     26  OE1 MOL d           4.663  25.497   1.065  0.00  0.00    -0.648 OA
ATOM     27  OE2 MOL d           6.425  26.620   0.363  0.00  0.00    -0.648 OA
ENDBRANCH  24  25
ENDBRANCH  23  24
ENDBRANCH  22  23
BRANCH  22  28
ATOM     28  N   MOL d           4.841  27.576   5.310  0.00  0.00    -0.066 N 
ATOM     29  H1  MOL d           3.895  27.313   5.084  0.00  0.00     0.275 HD
ATOM     30  H2  MOL d           5.146  28.305   4.684  0.00  0.00     0.275 HD
ATOM     31  H3  MOL d           4.878  27.911   6.260  0.00  0.00     0.275 HD
ENDBRANCH  22  28
ENDBRANCH  19  22
ENDBRANCH   1  18
TORSDOF 13
