### 
### Created by X-TOOL on Fri Sep 26 17:34:37 2014
### 

@<TRIPOS>MOLECULE
2qrk_ligand
   35    37     1     0     0
SMALL
GAST_HUCK


@<TRIPOS>ATOM
      1 P          29.8420    4.0540    6.9800 P.3       1 AMP         0.2008
      2 O1P        29.9870    5.4360    6.3680 O.co2     1 AMP        -0.5537
      3 O2P        30.0090    2.9770    5.9210 O.co2     1 AMP        -0.5537
      4 O3P        28.6270    3.8520    7.8920 O.co2     1 AMP        -0.5537
      5 O5'        31.1640    3.9620    7.8720 O.3       1 AMP        -0.2734
      6 C5'        31.5930    2.7450    8.4380 C.3       1 AMP         0.1072
      7 C4'        32.4570    3.1390    9.6170 C.3       1 AMP         0.1182
      8 O4'        32.7240    1.9210   10.2950 O.3       1 AMP        -0.3365
      9 C3'        33.7850    3.7790    9.2270 C.3       1 AMP         0.1149
     10 O3'        34.1090    4.8530   10.1280 O.3       1 AMP        -0.3864
     11 C2'        34.7560    2.6210    9.4080 C.3       1 AMP         0.1385
     12 O2'        36.1070    3.0170    9.6900 O.3       1 AMP        -0.3836
     13 C1'        34.1100    1.8940   10.5770 C.3       1 AMP         0.2010
     14 N9         34.5730    0.4950   10.6840 N.pl3     1 AMP        -0.1919
     15 C8         34.8010   -0.3670    9.6580 C.2       1 AMP         0.1123
     16 N7         35.2330   -1.5620   10.1430 N.2       1 AMP        -0.2958
     17 C5         35.2760   -1.4480   11.4970 C.ar      1 AMP         0.1045
     18 C6         35.6520   -2.3270   12.6220 C.ar      1 AMP         0.1298
     19 N6         36.0800   -3.5960   12.3500 N.pl3     1 AMP        -0.3152
     20 N1         35.5690   -1.8190   13.8850 N.ar      1 AMP        -0.2698
     21 C2         35.1600   -0.5480   14.1470 C.ar      1 AMP         0.0533
     22 N3         34.8010    0.3120   13.1580 N.ar      1 AMP        -0.2714
     23 C4         34.8470   -0.0830   11.8530 C.ar      1 AMP         0.1613
     24 H1         32.1771    2.1649    7.7085 H         1 AMP         0.0639
     25 H2         30.7306    2.1502    8.7734 H         1 AMP         0.0639
     26 H3         31.9032    3.8335   10.2658 H         1 AMP         0.0650
     27 H4         33.7739    4.1452    8.1898 H         1 AMP         0.0648
     28 H5         34.9377    5.2406    9.8719 H         1 AMP         0.2100
     29 H6         34.7662    1.9857    8.5101 H         1 AMP         0.0676
     30 H7         36.1262    3.5232   10.4936 H         1 AMP         0.2101
     31 H8         34.3256    2.4201   11.5186 H         1 AMP         0.0996
     32 H9         34.6588   -0.1351    8.6035 H         1 AMP         0.1349
     33 H10        36.3472   -4.2256   13.1202 H         1 AMP         0.1820
     34 H11        36.1354   -3.9229   11.3748 H         1 AMP         0.1820
     35 H12        35.1193   -0.2110   15.1765 H         1 AMP         0.0996
@<TRIPOS>BOND
     1    1    2 ar 
     2    1    3 ar 
     3    1    4 ar 
     4    1    5 1  
     5    5    6 1  
     6    6    7 1  
     7    7    8 1  
     8    7    9 1  
     9    8   13 1  
    10    9   10 1  
    11    9   11 1  
    12   11   12 1  
    13   11   13 1  
    14   13   14 1  
    15   14   15 1  
    16   14   23 1  
    17   15   16 2  
    18   16   17 1  
    19   17   18 ar 
    20   17   23 ar 
    21   18   19 1  
    22   18   20 ar 
    23   20   21 ar 
    24   21   22 ar 
    25   22   23 ar 
    26    6   24 1  
    27    6   25 1  
    28    7   26 1  
    29    9   27 1  
    30   10   28 1  
    31   11   29 1  
    32   12   30 1  
    33   13   31 1  
    34   15   32 1  
    35   19   33 1  
    36   19   34 1  
    37   21   35 1  
@<TRIPOS>SUBSTRUCTURE
     1 AMP         1

