### 
### Created by X-TOOL on Fri Sep 26 17:34:58 2014
### 

@<TRIPOS>MOLECULE
3wjw_ligand
   35    36     1     0     0
SMALL
GAST_HUCK


@<TRIPOS>ATOM
      1 O2         15.9160   38.6260   37.1020 O.2       1 U6M        -0.3819
      2 C2         15.5740   39.5820   36.3850 C.2       1 U6M         0.3319
      3 N3         14.2580   39.8870   36.2970 N.am      1 U6M        -0.1897
      4 C4         13.8450   40.9290   35.5600 C.2       1 U6M         0.1690
      5 O4         12.5980   41.1050   35.4780 O.2       1 U6M        -0.4214
      6 C5         14.7160   41.5010   34.6450 C.2       1 U6M        -0.0020
      7 C6         16.0580   41.1290   34.5980 C.2       1 U6M         0.0721
      8 C7         16.7990   41.2860   33.2890 C.3       1 U6M         0.0051
      9 N1         16.5300   40.2660   35.6550 N.am      1 U6M        -0.1533
     10 C1'        17.9780   40.0110   35.8510 C.3       1 U6M         0.2060
     11 O4'        18.2080   38.6740   35.3370 O.3       1 U6M        -0.3366
     12 C2'        18.4730   39.9960   37.2640 C.3       1 U6M         0.1384
     13 O2'        18.9280   41.3080   37.5750 O.3       1 U6M        -0.3837
     14 C3'        19.6290   39.0280   37.1890 C.3       1 U6M         0.1148
     15 O3'        20.7580   39.6830   36.5790 O.3       1 U6M        -0.3864
     16 C4'        19.1320   37.9880   36.2100 C.3       1 U6M         0.1181
     17 C5'        18.3860   36.8240   36.8530 C.3       1 U6M         0.1071
     18 O5'        19.4310   36.0410   37.4610 O.3       1 U6M        -0.2734
     19 P          19.0740   34.7050   38.2980 P.3       1 U6M         0.2008
     20 O3P        18.9640   33.5920   37.3150 O.co2     1 U6M        -0.5537
     21 O1P        17.7810   34.8920   39.0070 O.co2     1 U6M        -0.5537
     22 O2P        20.2500   34.5700   39.2360 O.co2     1 U6M        -0.5537
     23 H1         13.5870   39.3299   36.7863 H         1 U6M         0.2251
     24 H2         14.3448   42.2539   33.9512 H         1 U6M         0.0111
     25 H3         16.2550   41.9898   32.6419 H         1 U6M         0.0484
     26 H4         16.8711   40.3089   32.7890 H         1 U6M         0.0484
     27 H5         17.8098   41.6736   33.4840 H         1 U6M         0.0484
     28 H6         18.5511   40.7582   35.2825 H         1 U6M         0.0993
     29 H7         17.7052   39.6662   37.9793 H         1 U6M         0.0676
     30 H8         19.6292   41.5480   36.9807 H         1 U6M         0.2101
     31 H9         19.8878   38.6040   38.1704 H         1 U6M         0.0648
     32 H10        21.0062   40.4363   37.1019 H         1 U6M         0.2100
     33 H11        19.9841   37.5924   35.6378 H         1 U6M         0.0650
     34 H12        17.8471   36.2370   36.0947 H         1 U6M         0.0639
     35 H13        17.6751   37.1848   37.6109 H         1 U6M         0.0639
@<TRIPOS>BOND
     1    1    2 2  
     2    2    3 am 
     3    2    9 am 
     4    3    4 am 
     5    4    5 2  
     6    4    6 1  
     7    6    7 2  
     8    7    8 1  
     9    7    9 1  
    10    9   10 1  
    11   10   11 1  
    12   10   12 1  
    13   11   16 1  
    14   12   13 1  
    15   12   14 1  
    16   14   15 1  
    17   14   16 1  
    18   16   17 1  
    19   17   18 1  
    20   18   19 1  
    21   19   20 ar 
    22   19   21 ar 
    23   19   22 ar 
    24    3   23 1  
    25    6   24 1  
    26    8   25 1  
    27    8   26 1  
    28    8   27 1  
    29   10   28 1  
    30   12   29 1  
    31   13   30 1  
    32   14   31 1  
    33   15   32 1  
    34   16   33 1  
    35   17   34 1  
    36   17   35 1  
@<TRIPOS>SUBSTRUCTURE
     1 U6M         1

