### 
### Created by X-TOOL on Fri Sep 26 17:34:17 2014
### 

@<TRIPOS>MOLECULE
1d09_ligand
   22    21     1     0     0
SMALL
GAST_HUCK


@<TRIPOS>ATOM
      1 P          46.0070   29.5840   15.9460 P.3       1 PAL         0.0776
      2 O1P        45.9660   30.5120   17.1780 O.co2     1 PAL        -0.5606
      3 O2P        47.0690   28.5590   15.9510 O.co2     1 PAL        -0.5606
      4 O3P        46.3960   30.6030   14.7470 O.co2     1 PAL        -0.5606
      5 C1P        44.3640   29.0280   15.4540 C.3       1 PAL         0.1085
      6 C1         43.2480   29.9560   15.9130 C.2       1 PAL         0.1943
      7 O1         43.0070   31.0150   15.2890 O.2       1 PAL        -0.3954
      8 N2         42.6070   29.5920   17.0360 N.am      1 PAL        -0.2687
      9 C2         41.5030   30.3420   17.6060 C.3       1 PAL         0.1057
     10 C4         41.8220   31.6970   18.1950 C.2       1 PAL         0.0618
     11 O2         40.8690   32.4270   18.6500 O.co2     1 PAL        -0.5665
     12 O3         43.0400   31.9800   18.2310 O.co2     1 PAL        -0.5665
     13 C3         40.7170   29.4480   18.6010 C.3       1 PAL         0.0351
     14 C5         41.4990   29.1320   19.8640 C.2       1 PAL         0.0387
     15 O4         42.5700   29.7540   20.0760 O.co2     1 PAL        -0.5688
     16 O5         40.9980   28.2940   20.6580 O.co2     1 PAL        -0.5688
     17 H1         44.1890   28.0320   15.8868 H         1 PAL         0.0692
     18 H2         44.3327   28.9616   14.3565 H         1 PAL         0.0692
     19 H3         42.9063   28.7604   17.5039 H         1 PAL         0.1876
     20 H4         40.8231   30.5478   16.7662 H         1 PAL         0.0745
     21 H5         40.4661   28.5021   18.0988 H         1 PAL         0.0471
     22 H6         39.7909   29.9697   18.8841 H         1 PAL         0.0471
@<TRIPOS>BOND
     1    1    5 1  
     2    1    4 ar 
     3    1    3 ar 
     4    1    2 ar 
     5    5    6 1  
     6    6    8 am 
     7    6    7 2  
     8    8    9 1  
     9    9   13 1  
    10    9   10 1  
    11   10   12 ar 
    12   10   11 ar 
    13   13   14 1  
    14   14   16 ar 
    15   14   15 ar 
    16    5   17 1  
    17    5   18 1  
    18    8   19 1  
    19    9   20 1  
    20   13   21 1  
    21   13   22 1  
@<TRIPOS>SUBSTRUCTURE
     1 PAL         1

