REMARK  0 active torsions:
REMARK  status: ('A' for Active; 'I' for Inactive)
ROOT
ATOM      1 BR1  K32 d          20.811   6.879  22.679  0.00  0.00    -0.047 Br
ATOM      2  C5  K32 d          21.288   7.411  20.922  0.00  0.00     0.059 A 
ATOM      3  C2  K32 d          20.676   8.501  20.299  0.00  0.00     0.049 A 
ATOM      4 BR2  K32 d          19.342   9.456  21.226  0.00  0.00    -0.048 Br
ATOM      5  C7  K32 d          22.262   6.675  20.273  0.00  0.00     0.083 A 
ATOM      6  N14 K32 d          22.972   5.603  20.660  0.00  0.00    -0.305 N 
ATOM      7  C13 K32 d          23.753   5.352  19.602  0.00  0.00     0.325 A 
ATOM      8  O10 K32 d          24.585   4.365  19.625  0.00  0.00    -0.247 OA
ATOM      9  N6  K32 d          23.608   6.189  18.552  0.00  0.00    -0.305 N 
ATOM     10  C8  K32 d          22.646   7.041  18.978  0.00  0.00     0.083 A 
ATOM     11  C4  K32 d          22.019   8.131  18.379  0.00  0.00     0.059 A 
ATOM     12 BR3  K32 d          22.589   8.576  16.659  0.00  0.00    -0.047 Br
ATOM     13  C3  K32 d          21.025   8.886  19.007  0.00  0.00     0.049 A 
ATOM     14 BR4  K32 d          20.164  10.383  18.141  0.00  0.00    -0.048 Br
ATOM     15  H1  K32 d          22.928   5.111  21.529  0.00  0.00     0.171 HD
ATOM     16  H2  K32 d          24.091   6.181  17.677  0.00  0.00     0.171 HD
ENDROOT
TORSDOF 0
