### 
### Created by X-TOOL on Fri Sep 26 17:34:43 2014
### 

@<TRIPOS>MOLECULE
3fzn_ligand
   64    66     1     0     0
SMALL
GAST_HUCK


@<TRIPOS>ATOM
      1 PA        107.8070   41.3610   99.1990 P.3       1 D7K         0.3276
      2 O1A       107.9080   41.2790  100.6960 O.co2     1 D7K        -0.5556
      3 O2A       106.5640   40.9320   98.5630 O.co2     1 D7K        -0.5556
      4 O1B       111.2130   41.8300   98.0640 O.co2     1 D7K        -0.5891
      5 PB        110.6680   40.7070   98.9010 P.3       1 D7K         0.2069
      6 O2B       110.8350   40.8570  100.4090 O.co2     1 D7K        -0.5891
      7 O3B       111.2970   39.2970   98.4450 O.co2     1 D7K        -0.5891
      8 O3A       109.0410   40.4970   98.5070 O.3       1 D7K        -0.1548
      9 O01       108.1550   42.8520   98.8390 O.3       1 D7K        -0.2451
     10 C01       107.6820   43.4690   97.5880 C.3       1 D7K         0.0875
     11 C05       108.4960   44.7270   97.3960 C.3       1 D7K        -0.0077
     12 C04       108.3520   45.4780   96.0430 C.2       1 D7K        -0.0227
     13 C03       107.6850   46.6090   95.7590 C.2       1 D7K         0.0015
     14 CM4       106.8450   47.3680   96.8440 C.3       1 D7K        -0.0282
     15 S1        109.1320   44.8780   94.6460 S.3       1 D7K        -0.1230
     16 C02       108.5680   46.2170   93.6360 C.3       1 D7K         0.1098
     17 N3        107.7800   47.0420   94.4380 N.pl3     1 D7K        -0.3080
     18 C18       107.0630   48.3140   94.0440 C.3       1 D7K         0.0602
     19 C19       105.5980   48.1760   93.7800 C.ar      1 D7K         0.0402
     20 C20       104.7000   48.9130   94.5800 C.ar      1 D7K         0.0082
     21 C21       104.9860   47.4860   92.7040 C.ar      1 D7K         0.1231
     22 N22       105.7730   46.7670   91.8970 N.pl3     1 D7K        -0.3186
     23 N23       103.6090   47.4180   92.5660 N.ar      1 D7K        -0.2610
     24 C24       102.7770   48.1200   93.3610 C.ar      1 D7K         0.0758
     25 N25       103.2810   48.8690   94.3620 N.ar      1 D7K        -0.2938
     26 CM2       101.3660   48.0790   93.1380 C.3       1 D7K        -0.0029
     27 O12       110.2000   48.7960   93.0470 O.co2     1 D7K        -0.6244
     28 P8        110.6460   47.5570   92.2990 P.3       1 D7K         0.1251
     29 O11       111.3290   47.7250   90.9950 O.co2     1 D7K        -0.6244
     30 O9        111.6430   46.7050   93.2680 O.3       1 D7K        -0.2891
     31 C10       113.0720   46.7950   93.1090 C.3       1 D7K         0.0701
     32 C7        109.1110   46.3380   92.1700 C.3       1 D7K         0.1790
     33 O7        108.3400   47.1550   91.2880 O.3       1 D7K        -0.4047
     34 C2        109.4730   45.0720   91.5690 C.ar      1 D7K         0.0010
     35 C3        108.6440   44.4990   90.6110 C.ar      1 D7K        -0.0354
     36 C4        108.9430   43.2840   90.0090 C.ar      1 D7K        -0.0323
     37 C5        110.1080   42.6040   90.3570 C.ar      1 D7K        -0.0340
     38 C6        110.9570   43.1460   91.2990 C.ar      1 D7K        -0.0323
     39 C1        110.6490   44.3610   91.9080 C.ar      1 D7K        -0.0354
     40 H1        106.6131   43.7163   97.6667 H         1 D7K         0.0634
     41 H2        107.8383   42.7825   96.7428 H         1 D7K         0.0634
     42 H3        109.5555   44.4539   97.5096 H         1 D7K         0.0359
     43 H4        108.2106   45.4286   98.1937 H         1 D7K         0.0359
     44 H5        106.9228   46.8381   97.8048 H         1 D7K         0.0360
     45 H6        105.7912   47.4067   96.5310 H         1 D7K         0.0360
     46 H7        107.2317   48.3915   96.9574 H         1 D7K         0.0360
     47 H8        107.6840   45.6828   93.2576 H         1 D7K         0.0621
     48 H9        107.5366   48.6997   93.1291 H         1 D7K         0.0654
     49 H10       107.1927   49.0416   94.8587 H         1 D7K         0.0654
     50 H11       105.0915   49.5294   95.3812 H         1 D7K         0.0791
     51 H12       105.3643   46.2518   91.1042 H         1 D7K         0.1789
     52 H13       106.7880   46.7283   92.0681 H         1 D7K         0.1789
     53 H14       101.1487   47.4199   92.2846 H         1 D7K         0.0449
     54 H15       100.9995   49.0931   92.9206 H         1 D7K         0.0449
     55 H16       100.8637   47.6924   94.0370 H         1 D7K         0.0449
     56 H17       113.5649   46.1504   93.8517 H         1 D7K         0.0586
     57 H18       113.3926   47.8367   93.2573 H         1 D7K         0.0586
     58 H19       113.3497   46.4665   92.0966 H         1 D7K         0.0586
     59 H20       108.1672   47.9918   91.7032 H         1 D7K         0.1979
     60 H21       107.7357   45.0171   90.3251 H         1 D7K         0.0852
     61 H22       108.2707   42.8651   89.2691 H         1 D7K         0.0698
     62 H23       110.3457   41.6549   89.8903 H         1 D7K         0.0856
     63 H24       111.8686   42.6242   91.5671 H         1 D7K         0.0698
     64 H25       111.3215   44.7686   92.6541 H         1 D7K         0.0852
@<TRIPOS>BOND
     1    1    2 ar 
     2    1    3 ar 
     3    1    8 1  
     4    9    1 1  
     5    5    4 ar 
     6    5    6 ar 
     7    5    7 ar 
     8    8    5 1  
     9   10    9 1  
    10   11   10 1  
    11   12   11 1  
    12   13   12 2  
    13   15   12 1  
    14   13   14 1  
    15   17   13 1  
    16   16   15 1  
    17   16   17 1  
    18   32   16 1  
    19   17   18 1  
    20   18   19 1  
    21   19   20 ar 
    22   19   21 ar 
    23   20   25 ar 
    24   21   22 1  
    25   21   23 ar 
    26   23   24 ar 
    27   25   24 ar 
    28   24   26 1  
    29   28   27 ar 
    30   28   29 ar 
    31   28   30 1  
    32   28   32 1  
    33   30   31 1  
    34   32   33 1  
    35   32   34 1  
    36   34   35 ar 
    37   34   39 ar 
    38   35   36 ar 
    39   36   37 ar 
    40   37   38 ar 
    41   38   39 ar 
    42   10   40 1  
    43   10   41 1  
    44   11   42 1  
    45   11   43 1  
    46   14   44 1  
    47   14   45 1  
    48   14   46 1  
    49   16   47 1  
    50   18   48 1  
    51   18   49 1  
    52   20   50 1  
    53   22   51 1  
    54   22   52 1  
    55   26   53 1  
    56   26   54 1  
    57   26   55 1  
    58   31   56 1  
    59   31   57 1  
    60   31   58 1  
    61   33   59 1  
    62   35   60 1  
    63   36   61 1  
    64   37   62 1  
    65   38   63 1  
    66   39   64 1  
@<TRIPOS>SUBSTRUCTURE
     1 D7K         1

