### 
### Created by X-TOOL on Fri Sep 26 17:34:10 2014
### 

@<TRIPOS>MOLECULE
1ppk_ligand
   80    79     1     0     0
SMALL
GAST_HUCK


@<TRIPOS>ATOM
      1 CA         15.8930    4.2760   17.6750 C.3       1 MOL         0.0397
      2 CB         14.6850    3.7270   18.3960 C.3       1 MOL        -0.0298
      3 CG1        14.2890    4.9130   19.2440 C.3       1 MOL        -0.0606
      4 CG2        13.4810    3.5480   17.4890 C.3       1 MOL        -0.0606
      5 C          17.0470    4.5420   18.6790 C.2       1 MOL         0.1785
      6 O          17.1330    3.7770   19.6530 O.2       1 MOL        -0.3969
      7 N          17.8940    5.5230   18.4500 N.am      1 MOL        -0.2654
      8 CA         19.0350    5.6660   19.4260 C.3       1 MOL         0.1332
      9 C          18.9010    6.9930   20.1440 C.2       1 MOL         0.2042
     10 O          18.1120    7.8900   19.6950 O.2       1 MOL        -0.3944
     11 CB         20.3170    5.6050   18.5680 C.3       1 MOL        -0.0063
     12 CG1        20.3710    4.2270   17.8660 C.3       1 MOL        -0.0584
     13 CG2        20.2470    6.6320   17.4280 C.3       1 MOL        -0.0584
     14 N          19.7610    7.1140   21.1610 N.am      1 MOL        -0.2635
     15 CA         19.8050    8.3850   21.8980 C.3       1 MOL         0.1332
     16 C          21.3340    8.7140   22.0180 C.2       1 MOL         0.2033
     17 O          21.9430    8.2540   22.9760 O.2       1 MOL        -0.3945
     18 CB         19.1490    8.3320   23.2880 C.3       1 MOL        -0.0063
     19 CG1        19.1270    9.7510   23.8990 C.3       1 MOL        -0.0584
     20 CG2        17.7290    7.8730   23.2040 C.3       1 MOL        -0.0584
     21 N          21.8380    9.4640   21.0120 N.am      1 MOL        -0.2661
     22 CA         23.2210    9.8740   20.9950 C.3       1 MOL         0.1087
     23 CB         23.8860    9.3780   19.6540 C.3       1 MOL        -0.0108
     24 CG         23.7080    7.8240   19.4250 C.3       1 MOL        -0.0431
     25 CD1        24.3160    7.5100   18.0670 C.3       1 MOL        -0.0625
     26 CD2        24.2960    6.9500   20.5220 C.3       1 MOL        -0.0625
     27 P          23.2870   11.6820   21.2020 P.3       1 MOL         0.0315
     28 OP         22.4380   12.2440   20.1120 O.co2     1 MOL        -0.6160
     29 OH         24.7330   12.0620   21.0820 O.co2     1 MOL        -0.6160
     30 CP         22.6230   12.0970   22.8160 C.3       1 MOL         0.1155
     31 C          23.6070   11.9730   23.9730 C.2       1 MOL         0.2515
     32 O          24.0020   10.8590   24.3690 O.2       1 MOL        -0.3686
     33 OXT        24.3280   13.1020   24.4460 O.3       1 MOL        -0.2759
     34 C1         25.4700   12.9130   25.2580 C.3       1 MOL         0.0740
     35 C2         26.5940   13.7920   24.7560 C.3       1 MOL        -0.0371
     36 H1         15.6209    5.2185   17.1774 H         1 MOL         0.0505
     37 H2         16.2282    3.5473   16.9222 H         1 MOL         0.0505
     38 H3         14.9147    2.8134   18.9640 H         1 MOL         0.0320
     39 H4         13.4008    4.6571   19.8403 H         1 MOL         0.0234
     40 H5         14.0591    5.7691   18.5927 H         1 MOL         0.0234
     41 H6         15.1187    5.1763   19.9165 H         1 MOL         0.0234
     42 H7         13.6544    2.6978   16.8130 H         1 MOL         0.0234
     43 H8         13.3290    4.4623   16.8966 H         1 MOL         0.0234
     44 H9         12.5872    3.3541   18.1001 H         1 MOL         0.0234
     45 H10        17.7868    6.1404   17.6707 H         1 MOL         0.1883
     46 H11        19.0282    4.8470   20.1602 H         1 MOL         0.0802
     47 H12        21.2053    5.7715   19.1950 H         1 MOL         0.0343
     48 H13        21.2795    4.1652   17.2490 H         1 MOL         0.0234
     49 H14        19.4844    4.1064   17.2262 H         1 MOL         0.0234
     50 H15        20.3876    3.4298   18.6238 H         1 MOL         0.0234
     51 H16        20.2056    7.6467   17.8507 H         1 MOL         0.0234
     52 H17        19.3457    6.4491   16.8245 H         1 MOL         0.0234
     53 H18        21.1396    6.5358   16.7924 H         1 MOL         0.0234
     54 H19        20.3615    6.3557   21.4147 H         1 MOL         0.1883
     55 H20        19.2971    9.1638   21.3103 H         1 MOL         0.0802
     56 H21        19.7221    7.6504   23.9337 H         1 MOL         0.0343
     57 H22        18.6580    9.7148   24.8934 H         1 MOL         0.0234
     58 H23        18.5504   10.4225   23.2459 H         1 MOL         0.0234
     59 H24        20.1569   10.1259   23.9928 H         1 MOL         0.0234
     60 H25        17.6955    6.8617   22.7725 H         1 MOL         0.0234
     61 H26        17.1577    8.5631   22.5657 H         1 MOL         0.0234
     62 H27        17.2888    7.8563   24.2119 H         1 MOL         0.0234
     63 H28        21.2376    9.7411   20.2618 H         1 MOL         0.1870
     64 H29        23.7502    9.4066   21.8385 H         1 MOL         0.0766
     65 H30        24.9611    9.6081   19.6879 H         1 MOL         0.0306
     66 H31        23.4228    9.9133   18.8121 H         1 MOL         0.0306
     67 H32        22.6302    7.6079   19.3846 H         1 MOL         0.0297
     68 H33        24.2163    6.4342   17.8606 H         1 MOL         0.0232
     69 H34        25.3809    7.7857   18.0694 H         1 MOL         0.0232
     70 H35        23.7906    8.0829   17.2887 H         1 MOL         0.0232
     71 H36        23.8311    7.2079   21.4850 H         1 MOL         0.0232
     72 H37        25.3814    7.1178   20.5823 H         1 MOL         0.0232
     73 H38        24.1007    5.8921   20.2923 H         1 MOL         0.0232
     74 H39        21.7743   11.4268   23.0176 H         1 MOL         0.0723
     75 H40        22.2682   13.1376   22.7809 H         1 MOL         0.0723
     76 H41        25.7810   11.8588   25.2144 H         1 MOL         0.0610
     77 H42        25.2300   13.1818   26.2973 H         1 MOL         0.0610
     78 H43        27.4833   13.6460   25.3868 H         1 MOL         0.0255
     79 H44        26.2826   14.8461   24.7996 H         1 MOL         0.0255
     80 H45        26.8336   13.5231   23.7167 H         1 MOL         0.0255
@<TRIPOS>BOND
     1    7    8 1  
     2    8   11 1  
     3    8    9 1  
     4    9   10 2  
     5   11   13 1  
     6   11   12 1  
     7   14   15 1  
     8   15   18 1  
     9   15   16 1  
    10   16   17 2  
    11   18   20 1  
    12   18   19 1  
    13    9   14 am 
    14    1    2 1  
    15    5    1 1  
    16    2    3 1  
    17    2    4 1  
    18    5    6 2  
    19    7    5 am 
    20   16   21 am 
    21   21   22 1  
    22   22   23 1  
    23   22   27 1  
    24   23   24 1  
    25   24   25 1  
    26   24   26 1  
    27   27   28 ar 
    28   27   29 ar 
    29   27   30 1  
    30   30   31 1  
    31   31   32 2  
    32   31   33 1  
    33   33   34 1  
    34   34   35 1  
    35    1   36 1  
    36    1   37 1  
    37    2   38 1  
    38    3   39 1  
    39    3   40 1  
    40    3   41 1  
    41    4   42 1  
    42    4   43 1  
    43    4   44 1  
    44    7   45 1  
    45    8   46 1  
    46   11   47 1  
    47   12   48 1  
    48   12   49 1  
    49   12   50 1  
    50   13   51 1  
    51   13   52 1  
    52   13   53 1  
    53   14   54 1  
    54   15   55 1  
    55   18   56 1  
    56   19   57 1  
    57   19   58 1  
    58   19   59 1  
    59   20   60 1  
    60   20   61 1  
    61   20   62 1  
    62   21   63 1  
    63   22   64 1  
    64   23   65 1  
    65   23   66 1  
    66   24   67 1  
    67   25   68 1  
    68   25   69 1  
    69   25   70 1  
    70   26   71 1  
    71   26   72 1  
    72   26   73 1  
    73   30   74 1  
    74   30   75 1  
    75   34   76 1  
    76   34   77 1  
    77   35   78 1  
    78   35   79 1  
    79   35   80 1  
@<TRIPOS>SUBSTRUCTURE
     1 MOL         1

