REMARK  1 active torsions:
REMARK  status: ('A' for Active; 'I' for Inactive)
REMARK    1  A    between atoms: CAO_16  and  CAQ_17 
ROOT
ATOM      1  CAS MOL d          29.121  15.727  -1.182  0.00  0.00     0.022 A 
ATOM      2  CAJ MOL d          27.843  15.159  -1.053  0.00  0.00     0.040 A 
ATOM      3  CAP MOL d          27.286  15.083   0.217  0.00  0.00     0.035 A 
ATOM      4 CLAB MOL d          25.701  14.389   0.432  0.00  0.00    -0.084 Cl
ATOM      5  CAH MOL d          27.915  15.578   1.366  0.00  0.00     0.026 A 
ATOM      6  CAI MOL d          29.192  16.150   1.224  0.00  0.00     0.033 A 
ATOM      7  CAU MOL d          29.763  16.230  -0.040  0.00  0.00     0.055 A 
ATOM      8  NAV MOL d          31.023  16.810  -0.046  0.00  0.00    -0.282 N 
ATOM      9  CAR MOL d          31.533  17.872   0.633  0.00  0.00     0.131 A 
ATOM     10  CAA MOL d          30.806  18.822   1.603  0.00  0.00     0.093 C 
ATOM     11  NAM MOL d          32.815  18.037   0.299  0.00  0.00    -0.135 NA
ATOM     12  NAN MOL d          33.151  17.112  -0.526  0.00  0.00    -0.133 NA
ATOM     13  CAT MOL d          32.058  16.349  -0.758  0.00  0.00     0.154 A 
ATOM     14  CAK MOL d          31.956  15.215  -1.730  0.00  0.00     0.230 C 
ATOM     15  NAL MOL d          30.979  15.691  -2.746  0.00  0.00    -0.281 NA
ATOM     16  CAO MOL d          29.651  15.777  -2.509  0.00  0.00     0.074 C 
ENDROOT
BRANCH  16  17
ATOM     17  CAQ MOL d          28.859  16.264  -3.614  0.00  0.00    -0.007 A 
ATOM     18  CAF MOL d          27.692  16.991  -3.398  0.00  0.00     0.014 A 
ATOM     19  CAD MOL d          26.958  17.533  -4.455  0.00  0.00     0.001 A 
ATOM     20  CAC MOL d          27.343  17.328  -5.777  0.00  0.00     0.000 A 
ATOM     21  CAE MOL d          28.491  16.593  -5.996  0.00  0.00     0.001 A 
ATOM     22  CAG MOL d          29.227  16.066  -4.939  0.00  0.00     0.014 A 
ENDBRANCH  16  17
TORSDOF 1
