### 
### Created by X-TOOL on Fri Sep 26 17:34:32 2014
### 

@<TRIPOS>MOLECULE
2o4k_ligand
  104   106     1     0     0
SMALL
GAST_HUCK


@<TRIPOS>ATOM
      1 CAA        19.9960   24.6420   15.9400 C.3       1 DR7         0.0663
      2 OBI        18.6010   24.7680   16.2440 O.3       1 DR7        -0.2672
      3 CBK        18.0660   23.9900   17.3300 C.2       1 DR7         0.3216
      4 OAI        18.8570   23.4040   18.0640 O.2       1 DR7        -0.3774
      5 N          16.7420   23.9590   17.4700 N.am      1 DR7        -0.2407
      6 CA         16.0550   23.2110   18.5180 C.3       1 DR7         0.1375
      7 CB         15.6220   24.1410   19.6690 C.3       1 DR7         0.0025
      8 CAE        14.8510   25.3620   19.1550 C.3       1 DR7        -0.0558
      9 CG2        14.7800   23.3760   20.6930 C.3       1 DR7        -0.0558
     10 CG1        16.8360   24.6950   20.4060 C.3       1 DR7        -0.0558
     11 C          14.9460   22.4340   17.8320 C.2       1 DR7         0.2026
     12 O          13.8950   22.9880   17.5010 O.2       1 DR7        -0.3945
     13 NBG        15.2360   21.1330   17.5810 N.am      1 DR7        -0.2773
     14 CBT        14.3530   20.1860   16.8830 C.3       1 DR7         0.0823
     15 CBA        15.0910   19.7310   15.6190 C.3       1 DR7         0.0066
     16 CBO        15.5160   20.9260   14.7900 C.ar      1 DR7        -0.0408
     17 CAT        14.5530   21.6110   14.0390 C.ar      1 DR7        -0.0603
     18 CAP        14.9390   22.7120   13.2720 C.ar      1 DR7        -0.0686
     19 CAN        16.2720   23.1330   13.2480 C.ar      1 DR7        -0.0687
     20 CAQ        17.2340   22.4490   13.9910 C.ar      1 DR7        -0.0686
     21 CAU        16.8530   21.3450   14.7570 C.ar      1 DR7        -0.0603
     22 CBS        14.1300   18.9750   17.7880 C.3       1 DR7         0.1201
     23 OAM        15.3430   18.3350   18.2380 O.3       1 DR7        -0.3840
     24 CBC        13.4270   19.5100   18.9990 C.3       1 DR7         0.0233
     25 NBW        12.0240   19.1580   19.0510 N.4       1 DR7         0.3820
     26 NBH        11.2680   18.3190   18.1710 N.am      1 DR7        -0.2493
     27 CBN        10.5070   18.6270   17.1130 C.2       1 DR7         0.2392
     28 OAL        10.3380   19.7450   16.6320 O.2       1 DR7        -0.3898
     29 CBV         9.7910   17.4260   16.5440 C.3       1 DR7         0.1419
     30 CBY         9.8220   17.2830   15.0160 C.3       1 DR7         0.0027
     31 CAH        11.2620   17.4200   14.5270 C.3       1 DR7        -0.0558
     32 CAF         9.3190   15.8950   14.6260 C.3       1 DR7        -0.0558
     33 CAG         8.9460   18.3060   14.2990 C.3       1 DR7        -0.0558
     34 NBF         8.4160   17.4600   17.0610 N.am      1 DR7        -0.2405
     35 CBL         7.8660   16.4210   17.6960 C.2       1 DR7         0.3216
     36 OAJ         8.4370   15.3410   17.9260 O.2       1 DR7        -0.3774
     37 OBJ         6.5120   16.6080   18.1490 O.3       1 DR7        -0.2672
     38 CAB         5.9140   15.6250   18.9930 C.3       1 DR7         0.0663
     39 CBB        11.4270   19.6170   20.3090 C.3       1 DR7         0.0280
     40 CBP         9.9240   19.7340   20.2450 C.ar      1 DR7         0.0049
     41 CAW         9.3950   20.9700   19.9050 C.ar      1 DR7        -0.0520
     42 CAY         8.0150   21.1300   19.8370 C.ar      1 DR7        -0.0565
     43 CAX         9.0890   18.6560   20.5260 C.ar      1 DR7        -0.0520
     44 CAZ         7.7010   18.8210   20.4470 C.ar      1 DR7        -0.0565
     45 CBQ         7.1570   20.0630   20.1090 C.ar      1 DR7        -0.0068
     46 CBR         5.6730   20.2450   20.0080 C.ar      1 DR7         0.0481
     47 CAV         5.1410   21.1270   19.0610 C.ar      1 DR7        -0.0287
     48 CAR         3.7590   21.2810   18.9690 C.ar      1 DR7        -0.0433
     49 CAO         2.9350   20.5490   19.8220 C.ar      1 DR7        -0.0355
     50 CAS         3.5030   19.6770   20.7510 C.ar      1 DR7         0.0086
     51 NBD         4.8380   19.5490   20.8240 N.ar      1 DR7        -0.2940
     52 H1         20.2469   25.2958   15.0917 H         1 DR7         0.0575
     53 H2         20.2212   23.5979   15.6773 H         1 DR7         0.0575
     54 H3         20.5905   24.9357   16.8176 H         1 DR7         0.0575
     55 H4         16.1869   24.4779   16.8199 H         1 DR7         0.1899
     56 H5         16.7568   22.4809   18.9475 H         1 DR7         0.0804
     57 H6         14.5616   25.9973   20.0050 H         1 DR7         0.0237
     58 H7         13.9481   25.0281   18.6227 H         1 DR7         0.0237
     59 H8         15.4900   25.9368   18.4685 H         1 DR7         0.0237
     60 H9         15.3445   22.5033   21.0532 H         1 DR7         0.0237
     61 H10        13.8455   23.0387   20.2208 H         1 DR7         0.0237
     62 H11        14.5449   24.0361   21.5409 H         1 DR7         0.0237
     63 H12        17.4691   25.2540   19.7013 H         1 DR7         0.0237
     64 H13        17.4133   23.8643   20.8379 H         1 DR7         0.0237
     65 H14        16.5016   25.3665   21.2105 H         1 DR7         0.0237
     66 H15        16.1211   20.7901   17.8957 H         1 DR7         0.1857
     67 H16        13.3934   20.6590   16.6272 H         1 DR7         0.0606
     68 H17        14.4232   19.0946   15.0198 H         1 DR7         0.0449
     69 H18        15.9831   19.1562   15.9084 H         1 DR7         0.0449
     70 H19        13.5178   21.2896   14.0529 H         1 DR7         0.0557
     71 H20        14.1974   23.2460   12.6890 H         1 DR7         0.0599
     72 H21        16.5581   23.9917   12.6515 H         1 DR7         0.0559
     73 H22        18.2688   22.7716   13.9741 H         1 DR7         0.0599
     74 H23        17.5985   20.8071   15.3314 H         1 DR7         0.0557
     75 H24        13.5054   18.2356   17.2653 H         1 DR7         0.0672
     76 H25        15.1227   17.5956   18.7923 H         1 DR7         0.2101
     77 H26        13.5115   20.6067   18.9953 H         1 DR7         0.0849
     78 H27        13.9210   19.1072   19.8955 H         1 DR7         0.0849
     79 H28        11.7518   19.9764   18.5293 H         1 DR7         0.2323
     80 H29        11.3162   17.3425   18.3809 H         1 DR7         0.2384
     81 H30        10.2857   16.5304   16.9481 H         1 DR7         0.0806
     82 H31        11.2886   17.3181   13.4321 H         1 DR7         0.0237
     83 H32        11.8807   16.6334   14.9836 H         1 DR7         0.0237
     84 H33        11.6540   18.4072   14.8130 H         1 DR7         0.0237
     85 H34         8.2809   15.7717   14.9683 H         1 DR7         0.0237
     86 H35         9.9535   15.1295   15.0964 H         1 DR7         0.0237
     87 H36         9.3601   15.7840   13.5324 H         1 DR7         0.0237
     88 H37         9.2811   19.3212   14.5579 H         1 DR7         0.0237
     89 H38         7.8992   18.1749   14.6105 H         1 DR7         0.0237
     90 H39         9.0261   18.1595   13.2118 H         1 DR7         0.0237
     91 H40         7.8728   18.2898   16.9331 H         1 DR7         0.1899
     92 H41         4.8859   15.9293   19.2389 H         1 DR7         0.0575
     93 H42         6.5000   15.5314   19.9192 H         1 DR7         0.0575
     94 H43         5.8949   14.6566   18.4716 H         1 DR7         0.0575
     95 H44        11.8445   20.6046   20.5544 H         1 DR7         0.0995
     96 H45        11.6886   18.9010   21.1020 H         1 DR7         0.0995
     97 H46        10.0524   21.8056   19.6937 H         1 DR7         0.0567
     98 H47         7.6006   22.0953   19.5695 H         1 DR7         0.0625
     99 H48         9.5102   17.6966   20.8037 H         1 DR7         0.0567
    100 H49         7.0454   17.9816   20.6489 H         1 DR7         0.0625
    101 H50         5.7982   21.6857   18.4045 H         1 DR7         0.0706
    102 H51         3.3301   21.9619   18.2427 H         1 DR7         0.0732
    103 H52         1.8579   20.6567   19.7638 H         1 DR7         0.0697
    104 H53         2.8666   19.1024   21.4143 H         1 DR7         0.0823
@<TRIPOS>BOND
     1    1    2 1  
     2    2    3 1  
     3    3    4 2  
     4    3    5 am 
     5    5    6 1  
     6    6    7 1  
     7    6   11 1  
     8    7    8 1  
     9    7    9 1  
    10    7   10 1  
    11   11   12 2  
    12   11   13 am 
    13   13   14 1  
    14   14   15 1  
    15   14   22 1  
    16   15   16 1  
    17   16   17 ar 
    18   16   21 ar 
    19   17   18 ar 
    20   18   19 ar 
    21   19   20 ar 
    22   20   21 ar 
    23   22   23 1  
    24   22   24 1  
    25   24   25 1  
    26   25   26 1  
    27   25   39 1  
    28   26   27 am 
    29   27   28 2  
    30   27   29 1  
    31   29   30 1  
    32   29   34 1  
    33   30   31 1  
    34   30   32 1  
    35   30   33 1  
    36   34   35 am 
    37   35   36 2  
    38   35   37 1  
    39   37   38 1  
    40   39   40 1  
    41   40   41 ar 
    42   40   43 ar 
    43   41   42 ar 
    44   42   45 ar 
    45   43   44 ar 
    46   44   45 ar 
    47   45   46 1  
    48   46   47 ar 
    49   46   51 ar 
    50   47   48 ar 
    51   48   49 ar 
    52   49   50 ar 
    53   50   51 ar 
    54    1   52 1  
    55    1   53 1  
    56    1   54 1  
    57    5   55 1  
    58    6   56 1  
    59    8   57 1  
    60    8   58 1  
    61    8   59 1  
    62    9   60 1  
    63    9   61 1  
    64    9   62 1  
    65   10   63 1  
    66   10   64 1  
    67   10   65 1  
    68   13   66 1  
    69   14   67 1  
    70   15   68 1  
    71   15   69 1  
    72   17   70 1  
    73   18   71 1  
    74   19   72 1  
    75   20   73 1  
    76   21   74 1  
    77   22   75 1  
    78   23   76 1  
    79   24   77 1  
    80   24   78 1  
    81   25   79 1  
    82   26   80 1  
    83   29   81 1  
    84   31   82 1  
    85   31   83 1  
    86   31   84 1  
    87   32   85 1  
    88   32   86 1  
    89   32   87 1  
    90   33   88 1  
    91   33   89 1  
    92   33   90 1  
    93   34   91 1  
    94   38   92 1  
    95   38   93 1  
    96   38   94 1  
    97   39   95 1  
    98   39   96 1  
    99   41   97 1  
   100   42   98 1  
   101   43   99 1  
   102   44  100 1  
   103   47  101 1  
   104   48  102 1  
   105   49  103 1  
   106   50  104 1  
@<TRIPOS>SUBSTRUCTURE
     1 DR7         1

