### 
### Created by X-TOOL on Fri Sep 26 17:34:45 2014
### 

@<TRIPOS>MOLECULE
3e3c_ligand
   34    33     1     0     0
SMALL
GAST_HUCK


@<TRIPOS>ATOM
      1 O2P         4.0870   23.3010   33.3650 O.co2     1 HHG        -0.5537
      2 P           3.7870   24.6710   32.8000 P.3       1 HHG         0.2008
      3 O4P         4.1630   25.7980   33.7340 O.co2     1 HHG        -0.5537
      4 O1P         2.3510   24.8160   32.3310 O.co2     1 HHG        -0.5537
      5 O3P         4.7450   24.8130   31.5000 O.3       1 HHG        -0.2734
      6 C1          6.1400   25.0700   31.6270 C.3       1 HHG         0.1068
      7 C2          6.7590   25.2070   30.2380 C.3       1 HHG         0.1105
      8 O2          5.8910   25.9950   29.3960 O.3       1 HHG        -0.3865
      9 C3          8.1260   25.8690   30.3880 C.3       1 HHG         0.1051
     10 O3          8.7400   26.0070   29.1040 O.3       1 HHG        -0.2742
     11 C4         10.0610   25.4640   28.7940 C.2       1 HHG         0.2338
     12 O1         10.7040   24.8510   29.6510 O.2       1 HHG        -0.3704
     13 C5         10.5960   25.6880   27.3910 C.3       1 HHG         0.0487
     14 C6         11.9780   25.0790   27.1800 C.3       1 HHG        -0.0348
     15 C7         13.0310   26.1750   27.1530 C.3       1 HHG        -0.0511
     16 C8         14.0920   25.8870   26.1020 C.3       1 HHG        -0.0558
     17 C9         15.3760   25.2960   26.6470 C.3       1 HHG        -0.0653
     18 H1          6.6195   24.2369   32.1618 H         1 HHG         0.0639
     19 H2          6.2916   26.0028   32.1899 H         1 HHG         0.0639
     20 H3          6.8848   24.2102   29.7902 H         1 HHG         0.0646
     21 H4          5.0462   25.5662   29.3246 H         1 HHG         0.2100
     22 H5          8.7642   25.2473   31.0331 H         1 HHG         0.0640
     23 H6          8.0026   26.8630   30.8426 H         1 HHG         0.0640
     24 H7         10.6576   26.7708   27.2073 H         1 HHG         0.0518
     25 H8          9.8984   25.2332   26.6723 H         1 HHG         0.0518
     26 H9         11.9942   24.5349   26.2242 H         1 HHG         0.0291
     27 H10        12.1985   24.3824   28.0023 H         1 HHG         0.0291
     28 H11        13.5110   26.2369   28.1408 H         1 HHG         0.0267
     29 H12        12.5456   27.1343   26.9204 H         1 HHG         0.0267
     30 H13        14.3375   26.8316   25.5946 H         1 HHG         0.0263
     31 H14        13.6702   25.1785   25.3740 H         1 HHG         0.0263
     32 H15        16.0798   25.1223   25.8197 H         1 HHG         0.0230
     33 H16        15.1567   24.3417   27.1482 H         1 HHG         0.0230
     34 H17        15.8239   25.9948   27.3688 H         1 HHG         0.0230
@<TRIPOS>BOND
     1    1    2 ar 
     2    2    3 ar 
     3    2    4 ar 
     4    2    5 1  
     5    5    6 1  
     6    6    7 1  
     7    7    8 1  
     8    7    9 1  
     9    9   10 1  
    10   10   11 1  
    11   11   12 2  
    12   11   13 1  
    13   13   14 1  
    14   14   15 1  
    15   15   16 1  
    16   16   17 1  
    17    6   18 1  
    18    6   19 1  
    19    7   20 1  
    20    8   21 1  
    21    9   22 1  
    22    9   23 1  
    23   13   24 1  
    24   13   25 1  
    25   14   26 1  
    26   14   27 1  
    27   15   28 1  
    28   15   29 1  
    29   16   30 1  
    30   16   31 1  
    31   17   32 1  
    32   17   33 1  
    33   17   34 1  
@<TRIPOS>SUBSTRUCTURE
     1 HHG         1

