### 
### Created by X-TOOL on Fri Sep 26 17:34:40 2014
### 

@<TRIPOS>MOLECULE
2zcr_ligand
   52    53     1     0     0
SMALL
GAST_HUCK


@<TRIPOS>ATOM
      1 CAA         9.6030   61.6780   37.6620 C.3       1 B69        -0.0651
      2 CAP        10.0000   60.3370   38.2800 C.3       1 B69        -0.0541
      3 CAQ        11.4430   59.9530   37.9370 C.3       1 B69        -0.0435
      4 CAS        11.7280   58.5850   38.5610 C.3       1 B69        -0.0191
      5 CAV        13.0590   57.9340   38.1750 C.ar      1 B69        -0.0429
      6 CAI        13.1960   57.2880   36.9500 C.ar      1 B69        -0.0600
      7 CAM        14.2900   56.4650   36.7060 C.ar      1 B69        -0.0616
      8 CAH        14.0400   57.7730   39.1450 C.ar      1 B69        -0.0600
      9 CAL        15.1350   56.9520   38.9010 C.ar      1 B69        -0.0616
     10 CAX        15.2640   56.2920   37.6840 C.ar      1 B69        -0.0283
     11 CAY        16.4110   55.5450   37.4380 C.ar      1 B69        -0.0283
     12 CAO        17.0740   54.9240   38.4920 C.ar      1 B69        -0.0616
     13 CAK        18.2950   54.2940   38.2670 C.ar      1 B69        -0.0600
     14 CAN        16.9620   55.5140   36.1630 C.ar      1 B69        -0.0616
     15 CAJ        18.1830   54.8860   35.9390 C.ar      1 B69        -0.0600
     16 CAW        18.8540   54.2790   36.9950 C.ar      1 B69        -0.0429
     17 CAT        20.2220   53.6230   36.7780 C.3       1 B69        -0.0190
     18 CAR        20.1110   52.0980   36.7290 C.3       1 B69        -0.0402
     19 CAU        21.4080   51.4360   37.1990 C.3       1 B69        -0.0165
     20 CAZ        22.5900   51.7140   36.2700 C.3       1 B69         0.1121
     21 PBA        22.6190   50.5110   34.8790 P.3       1 B69         0.0795
     22 OAC        23.9080   50.8500   33.9740 O.co2     1 B69        -0.5610
     23 OAD        22.8820   49.0690   35.5430 O.co2     1 B69        -0.5610
     24 OAB        21.3680   50.5640   34.0890 O.co2     1 B69        -0.5610
     25 SBB        24.1430   51.6000   37.2320 S.o2      1 B69        -0.1731
     26 OAG        25.2460   51.9260   36.3830 O.co2     1 B69        -0.4830
     27 OAF        24.3020   50.2040   37.7550 O.co2     1 B69        -0.4830
     28 OAE        24.0800   52.5610   38.3840 O.co2     1 B69        -0.4830
     29 H1          8.5632   61.9131   37.9331 H         1 B69         0.0230
     30 H2          9.6918   61.6179   36.5673 H         1 B69         0.0230
     31 H3         10.2683   62.4677   38.0411 H         1 B69         0.0230
     32 H4          9.3246   59.5565   37.8995 H         1 B69         0.0264
     33 H5          9.9011   60.4064   39.3733 H         1 B69         0.0264
     34 H6         12.1364   60.7022   38.3468 H         1 B69         0.0287
     35 H7         11.5656   59.8983   36.8452 H         1 B69         0.0287
     36 H8         10.9198   57.9026   38.2590 H         1 B69         0.0427
     37 H9         11.7170   58.7052   39.6543 H         1 B69         0.0427
     38 H10        12.4449   57.4273   36.1809 H         1 B69         0.0558
     39 H11        14.3839   55.9577   35.7526 H         1 B69         0.0600
     40 H12        13.9516   58.2887   40.0944 H         1 B69         0.0558
     41 H13        15.8936   56.8255   39.6649 H         1 B69         0.0600
     42 H14        16.6410   54.9307   39.4857 H         1 B69         0.0600
     43 H15        18.8125   53.8125   39.0888 H         1 B69         0.0558
     44 H16        16.4374   55.9819   35.3378 H         1 B69         0.0600
     45 H17        18.6106   54.8699   34.9430 H         1 B69         0.0558
     46 H18        20.8895   53.9064   37.6051 H         1 B69         0.0427
     47 H19        20.6435   53.9814   35.8273 H         1 B69         0.0427
     48 H20        19.9026   51.7860   35.6950 H         1 B69         0.0288
     49 H21        19.2864   51.7766   37.3823 H         1 B69         0.0288
     50 H22        21.2489   50.3487   37.2484 H         1 B69         0.0298
     51 H23        21.6528   51.8167   38.2015 H         1 B69         0.0298
     52 H24        22.4931   52.7298   35.8593 H         1 B69         0.0695
@<TRIPOS>BOND
     1    1    2 1  
     2    2    3 1  
     3    3    4 1  
     4    4    5 1  
     5    5    6 ar 
     6    5    8 ar 
     7    6    7 ar 
     8    7   10 ar 
     9    8    9 ar 
    10    9   10 ar 
    11   10   11 1  
    12   11   12 ar 
    13   11   14 ar 
    14   12   13 ar 
    15   13   16 ar 
    16   14   15 ar 
    17   15   16 ar 
    18   16   17 1  
    19   17   18 1  
    20   18   19 1  
    21   19   20 1  
    22   20   21 1  
    23   20   25 1  
    24   21   22 ar 
    25   21   23 ar 
    26   21   24 ar 
    27   25   26 ar 
    28   25   27 ar 
    29   25   28 ar 
    30    1   29 1  
    31    1   30 1  
    32    1   31 1  
    33    2   32 1  
    34    2   33 1  
    35    3   34 1  
    36    3   35 1  
    37    4   36 1  
    38    4   37 1  
    39    6   38 1  
    40    7   39 1  
    41    8   40 1  
    42    9   41 1  
    43   12   42 1  
    44   13   43 1  
    45   14   44 1  
    46   15   45 1  
    47   17   46 1  
    48   17   47 1  
    49   18   48 1  
    50   18   49 1  
    51   19   50 1  
    52   19   51 1  
    53   20   52 1  
@<TRIPOS>SUBSTRUCTURE
     1 B69         1

