### 
### Created by X-TOOL on Sun Nov 13 14:29:39 2016
### 

@<TRIPOS>MOLECULE
4u6c_ligand
   30    30     1     0     0
SMALL
GAST_HUCK


@<TRIPOS>ATOM
      1 O2         22.1400   -2.2300   12.4160 O.co2     1 Q06        -0.5586
      2 P          21.4250   -2.4610   11.0310 P.3       1 Q06         0.1102
      3 O          21.2720   -1.2070   10.3490 O.co2     1 Q06        -0.5586
      4 O1         20.0030   -3.0490   11.1970 O.co2     1 Q06        -0.5586
      5 C          22.2870   -3.5930    9.9370 C.3       1 Q06         0.0442
      6 N          23.6130   -3.1450    9.5080 N.4       1 Q06         0.2328
      7 C1         22.1150   -4.5890   11.0210 C.3       1 Q06         0.0063
      8 C2         23.3410   -5.2490   11.3480 C.3       1 Q06        -0.0437
      9 C3         23.3740   -6.4380   10.4970 C.3       1 Q06        -0.0408
     10 C7         22.0580   -7.1200   10.1530 C.3       1 Q06        -0.0502
     11 C6         22.4690   -8.5520    9.8860 C.3       1 Q06        -0.0528
     12 C5         23.7250   -8.7550   10.7150 C.3       1 Q06        -0.0528
     13 C4         24.0500   -7.4460   11.3900 C.3       1 Q06        -0.0502
     14 H1         21.7239   -3.8574    9.0298 H         1 Q06         0.1049
     15 H2         24.0213   -3.8377    8.9002 H         1 Q06         0.2011
     16 H3         24.2023   -3.0176   10.3158 H         1 Q06         0.2011
     17 H4         23.5285   -2.2712    9.0126 H         1 Q06         0.2011
     18 H5         21.3826   -5.3428   10.6965 H         1 Q06         0.0335
     19 H6         21.7393   -4.0750   11.9180 H         1 Q06         0.0335
     20 H7         23.3543   -5.5343   12.4103 H         1 Q06         0.0270
     21 H8         24.2000   -4.5964   11.1327 H         1 Q06         0.0270
     22 H9         23.9368   -6.2259    9.5760 H         1 Q06         0.0301
     23 H10        21.6012   -6.6680    9.2603 H         1 Q06         0.0268
     24 H11        21.3524   -7.0628   10.9949 H         1 Q06         0.0268
     25 H12        22.6817   -8.7014    8.8172 H         1 Q06         0.0265
     26 H13        21.6784   -9.2479   10.2034 H         1 Q06         0.0265
     27 H14        24.5584   -9.0568   10.0635 H         1 Q06         0.0265
     28 H15        23.5513   -9.5334   11.4726 H         1 Q06         0.0265
     29 H16        23.6384   -7.4122   12.4095 H         1 Q06         0.0268
     30 H17        25.1364   -7.2777   11.4274 H         1 Q06         0.0268
@<TRIPOS>BOND
     1    1    2 ar 
     2    2    3 ar 
     3    2    4 ar 
     4    2    5 1  
     5    5    6 1  
     6    5    7 1  
     7    7    8 1  
     8    8    9 1  
     9    9   10 1  
    10    9   13 1  
    11   10   11 1  
    12   11   12 1  
    13   12   13 1  
    14    5   14 1  
    15    6   15 1  
    16    6   16 1  
    17    6   17 1  
    18    7   18 1  
    19    7   19 1  
    20    8   20 1  
    21    8   21 1  
    22    9   22 1  
    23   10   23 1  
    24   10   24 1  
    25   11   25 1  
    26   11   26 1  
    27   12   27 1  
    28   12   28 1  
    29   13   29 1  
    30   13   30 1  
@<TRIPOS>SUBSTRUCTURE
     1 Q06         1

