### 
### Created by X-TOOL on Fri Sep 26 17:34:34 2014
### 

@<TRIPOS>MOLECULE
2ews_ligand
   44    46     1     0     0
SMALL
GAST_HUCK


@<TRIPOS>ATOM
      1 PG         19.1260   24.5240   -0.4790 P.3       1 ANP         0.1803
      2 O1G        19.5070   25.4890    0.6100 O.co2     1 ANP        -0.5454
      3 O2G        18.6610   23.2060    0.0600 O.co2     1 ANP        -0.5454
      4 O3G        20.3230   24.1550   -1.3870 O.co2     1 ANP        -0.5454
      5 PB         17.1640   24.8150   -2.7860 P.3       1 ANP         0.2543
      6 O1B        17.7180   23.6320   -3.3500 O.co2     1 ANP        -0.6257
      7 O2B        15.6650   24.6830   -2.5850 O.co2     1 ANP        -0.6257
      8 N3B        17.8700   25.2100   -1.3140 N.am      1 ANP        -0.1803
      9 PA         17.1730   26.2570   -5.3440 P.3       1 ANP         0.2949
     10 O1A        18.5210   26.1740   -6.1390 O.co2     1 ANP        -0.6129
     11 O2A        16.1420   25.2760   -5.8070 O.co2     1 ANP        -0.6129
     12 O3A        17.4840   26.0520   -3.7800 O.3       1 ANP        -0.1431
     13 N9         12.5270   29.5350   -7.6100 N.pl3     1 ANP        -0.1919
     14 C8         12.5850   29.0810   -8.8600 C.2       1 ANP         0.1123
     15 N7         11.4750   28.4930   -9.2730 N.2       1 ANP        -0.2958
     16 C5         10.6220   28.5610   -8.2050 C.ar      1 ANP         0.1045
     17 C6          9.2450   28.1130   -8.0040 C.ar      1 ANP         0.1298
     18 N6          8.4450   27.5050   -8.7970 N.pl3     1 ANP        -0.3152
     19 N1          8.7920   28.4060   -6.7540 N.ar      1 ANP        -0.2698
     20 C2          9.5040   29.0520   -5.7690 C.ar      1 ANP         0.0533
     21 N3         10.7450   29.4670   -5.9340 N.ar      1 ANP        -0.2714
     22 C4         11.2640   29.2070   -7.1690 C.ar      1 ANP         0.1613
     23 O5'        16.6320   27.7660   -5.4630 O.3       1 ANP        -0.2478
     24 C5'        15.4000   28.0970   -4.7860 C.3       1 ANP         0.1128
     25 C4'        15.0090   29.5140   -5.2090 C.3       1 ANP         0.1189
     26 O4'        14.6320   29.4450   -6.5960 O.3       1 ANP        -0.3364
     27 C3'        13.7730   30.0210   -4.5170 C.3       1 ANP         0.1149
     28 O3'        14.1130   30.6520   -3.2790 O.3       1 ANP        -0.3864
     29 C2'        13.1940   30.8980   -5.5660 C.3       1 ANP         0.1385
     30 O2'        13.7740   32.2250   -5.4620 O.3       1 ANP        -0.3836
     31 C1'        13.5820   30.2670   -6.8540 C.3       1 ANP         0.2010
     32 H1         17.4587   26.0006   -0.8604 H         1 ANP         0.2132
     33 H2         13.4690   29.1847   -9.4874 H         1 ANP         0.1349
     34 H3          7.4943   27.2625   -8.4834 H         1 ANP         0.1820
     35 H4          8.7519   27.2582   -9.7487 H         1 ANP         0.1820
     36 H5          9.0227   29.2278   -4.8138 H         1 ANP         0.0996
     37 H6         15.5478   28.0576   -3.6967 H         1 ANP         0.0648
     38 H7         14.6105   27.3876   -5.0748 H         1 ANP         0.0648
     39 H8         15.8519   30.2018   -5.0467 H         1 ANP         0.0651
     40 H9         13.0788   29.1964   -4.2978 H         1 ANP         0.0648
     41 H10        14.6947   31.3840   -3.4472 H         1 ANP         0.2100
     42 H11        12.0996   30.9570   -5.4720 H         1 ANP         0.0676
     43 H12        13.5824   32.5868   -4.6048 H         1 ANP         0.2101
     44 H13        13.9291   31.0758   -7.5138 H         1 ANP         0.0996
@<TRIPOS>BOND
     1    1    2 ar 
     2    1    3 ar 
     3    1    4 ar 
     4    8    1 am 
     5    5    6 ar 
     6    5    7 ar 
     7    5    8 1  
     8   12    5 1  
     9    9   10 ar 
    10    9   11 ar 
    11    9   12 1  
    12   23    9 1  
    13   13   14 1  
    14   13   22 1  
    15   31   13 1  
    16   14   15 2  
    17   16   15 1  
    18   16   17 ar 
    19   22   16 ar 
    20   17   18 1  
    21   17   19 ar 
    22   20   19 ar 
    23   21   20 ar 
    24   22   21 ar 
    25   24   23 1  
    26   25   24 1  
    27   26   25 1  
    28   25   27 1  
    29   26   31 1  
    30   27   28 1  
    31   27   29 1  
    32   29   30 1  
    33   29   31 1  
    34    8   32 1  
    35   14   33 1  
    36   18   34 1  
    37   18   35 1  
    38   20   36 1  
    39   24   37 1  
    40   24   38 1  
    41   25   39 1  
    42   27   40 1  
    43   28   41 1  
    44   29   42 1  
    45   30   43 1  
    46   31   44 1  
@<TRIPOS>SUBSTRUCTURE
     1 ANP         1

