### 
### Created by X-TOOL on Fri Sep 26 17:34:24 2014
### 

@<TRIPOS>MOLECULE
1mrs_ligand
   35    36     1     0     0
SMALL
GAST_HUCK


@<TRIPOS>ATOM
      1 P          26.4290   15.2810    8.3730 P.3       1 MOL         0.2008
      2 O1P        27.4210   14.8400    9.5550 O.co2     1 MOL        -0.5537
      3 O2P        25.5450   16.6390    8.8350 O.co2     1 MOL        -0.5537
      4 O3P        27.2720   15.6440    6.9850 O.co2     1 MOL        -0.5537
      5 O5'        25.3510   14.1790    8.1290 O.3       1 MOL        -0.2734
      6 C5'        25.3440   13.0540    7.3450 C.3       1 MOL         0.1071
      7 C4'        23.9370   12.4280    7.5210 C.3       1 MOL         0.1156
      8 O4'        23.8310   11.0130    7.7110 O.3       1 MOL        -0.3395
      9 C3'        22.9490   12.8970    8.6520 C.3       1 MOL         0.0889
     10 O3'        21.4840   13.1190    8.4360 O.3       1 MOL        -0.3890
     11 C2'        23.5020   11.9320    9.7490 C.3       1 MOL         0.0308
     12 C1'        23.5510   10.6290    9.0420 C.3       1 MOL         0.1757
     13 N1         24.5820    9.6320    9.3830 N.am      1 MOL        -0.1735
     14 C2         24.0980    8.3690    9.6460 C.2       1 MOL         0.3265
     15 O2         22.8300    8.1360    9.5760 O.2       1 MOL        -0.3843
     16 N3         24.9180    7.3630    9.9780 N.am      1 MOL        -0.1859
     17 C4         26.2480    7.5750   10.0590 C.2       1 MOL         0.1954
     18 O4         27.0210    6.5500   10.3930 O.2       1 MOL        -0.4078
     19 C5         26.8010    8.8510    9.7950 C.2       1 MOL         0.0506
     20 C5A        28.2830    9.0410    9.8900 C.3       1 MOL         0.0664
     21 C6         25.9230    9.8800    9.4540 C.2       1 MOL         0.0549
     22 O5B        28.6390    8.8530    8.9170 O.3       1 MOL        -0.3905
     23 H1         26.1211   12.3501    7.6775 H         1 MOL         0.0639
     24 H2         25.5163   13.3197    6.2916 H         1 MOL         0.0639
     25 H3         23.4469   12.6628    6.5646 H         1 MOL         0.0649
     26 H4         23.2753   13.9074    8.9392 H         1 MOL         0.0622
     27 H5         21.0836   13.3983    9.2510 H         1 MOL         0.2099
     28 H6         22.8262   11.8878   10.6158 H         1 MOL         0.0344
     29 H7         24.5041   12.2412   10.0808 H         1 MOL         0.0344
     30 H8         22.5667   10.1457    9.1290 H         1 MOL         0.0959
     31 H9         24.5442    6.4547   10.1658 H         1 MOL         0.2259
     32 H10        28.7201    8.3306   10.6071 H         1 MOL         0.0624
     33 H11        28.5234   10.0689   10.1992 H         1 MOL         0.0624
     34 H12        26.3058   10.8779    9.2451 H         1 MOL         0.1012
     35 H13        29.5833    8.9561    8.9011 H         1 MOL         0.2111
@<TRIPOS>BOND
     1    1    2 ar 
     2    1    3 ar 
     3    1    4 ar 
     4    1    5 1  
     5    5    6 1  
     6    6    7 1  
     7    7    8 1  
     8    7    9 1  
     9    8   12 1  
    10    9   10 1  
    11    9   11 1  
    12   11   12 1  
    13   12   13 1  
    14   13   14 am 
    15   13   21 am 
    16   14   15 2  
    17   14   16 am 
    18   16   17 am 
    19   17   18 2  
    20   17   19 1  
    21   19   20 1  
    22   19   21 2  
    23   20   22 1  
    24    6   23 1  
    25    6   24 1  
    26    7   25 1  
    27    9   26 1  
    28   10   27 1  
    29   11   28 1  
    30   11   29 1  
    31   12   30 1  
    32   16   31 1  
    33   20   32 1  
    34   20   33 1  
    35   21   34 1  
    36   22   35 1  
@<TRIPOS>SUBSTRUCTURE
     1 MOL         1

