### 
### Created by X-TOOL on Fri Sep 26 17:34:57 2014
### 

@<TRIPOS>MOLECULE
4etz_ligand
   68    74     1     0     0
SMALL
GAST_HUCK


@<TRIPOS>ATOM
      1 P1         14.3220   -1.9770   -7.3880 P.3       1 C2E         0.2557
      2 O2P        13.3200   -1.5670   -8.4480 O.co2     1 C2E        -0.6177
      3 O1P        13.9960   -3.1720   -6.5240 O.co2     1 C2E        -0.6177
      4 O5'        14.6630   -0.8090   -6.3830 O.3       1 C2E        -0.2514
      5 C5'        15.0260    0.5130   -6.8030 C.3       1 C2E         0.1128
      6 C4'        15.4940    1.3300   -5.5990 C.3       1 C2E         0.1242
      7 O4'        14.4500    1.3880   -4.6400 O.3       1 C2E        -0.3359
      8 C3'        16.6400    0.6970   -4.8060 C.3       1 C2E         0.1540
      9 O3'        17.9360    0.9830   -5.3050 O.3       1 C2E        -0.2453
     10 C2'        16.4800    1.2100   -3.3960 C.3       1 C2E         0.1440
     11 O2'        17.1770    2.4450   -3.2150 O.3       1 C2E        -0.3832
     12 C1'        14.9810    1.3840   -3.2910 C.3       1 C2E         0.1996
     13 N9         14.4090    0.1840   -2.6110 N.pl3     1 C2E        -0.2101
     14 C8         13.6570   -0.7290   -3.2360 C.2       1 C2E         0.0957
     15 N7         13.2250   -1.6870   -2.4140 N.2       1 C2E        -0.3235
     16 C5         13.7370   -1.4060   -1.1900 C.2       1 C2E         0.0926
     17 C6         13.6950   -2.0160    0.1570 C.2       1 C2E         0.2135
     18 O6         13.0070   -3.1630    0.4290 O.2       1 C2E        -0.4091
     19 N1         14.3630   -1.3820    1.1580 N.am      1 C2E        -0.1839
     20 C2         15.0960   -0.2360    0.9770 C.2       1 C2E         0.2340
     21 N2         15.7260    0.3000    2.0410 N.pl3     1 C2E        -0.2807
     22 N3         15.1650    0.3850   -0.2250 N.2       1 C2E        -0.2765
     23 C4         14.5250   -0.1560   -1.3210 C.2       1 C2E         0.1159
     24 P11        19.1220   -0.0920   -5.1190 P.3       1 C2E         0.2557
     25 O21        20.3620    0.5770   -5.6550 O.co2     1 C2E        -0.6177
     26 O11        19.1670   -0.5890   -3.6950 O.co2     1 C2E        -0.6177
     27 O5A        18.6920   -1.2560   -6.1080 O.3       1 C2E        -0.2514
     28 C5A        18.6840   -1.0690   -7.5080 C.3       1 C2E         0.1128
     29 C4A        18.1610   -2.3540   -8.0980 C.3       1 C2E         0.1242
     30 O4A        19.0310   -3.4010   -7.6760 O.3       1 C2E        -0.3359
     31 C3A        16.8270   -2.7700   -7.5240 C.3       1 C2E         0.1540
     32 O3A        15.7060   -2.2160   -8.1830 O.3       1 C2E        -0.2453
     33 C2A        16.8260   -4.2670   -7.6830 C.3       1 C2E         0.1440
     34 O2A        16.4850   -4.6730   -8.9990 O.3       1 C2E        -0.3832
     35 C1A        18.2760   -4.6040   -7.4540 C.3       1 C2E         0.1996
     36 N91        18.4130   -4.9940   -6.0410 N.pl3     1 C2E        -0.2101
     37 C81        18.9180   -4.2080   -5.0690 C.2       1 C2E         0.0957
     38 N71        18.9100   -4.8600   -3.8770 N.2       1 C2E        -0.3235
     39 C51        18.3650   -6.0690   -4.1010 C.2       1 C2E         0.0926
     40 C61        18.0700   -7.2390   -3.2640 C.2       1 C2E         0.2135
     41 O61        18.3850   -7.1790   -1.9590 O.2       1 C2E        -0.4091
     42 N11        17.4840   -8.3110   -3.8000 N.am      1 C2E        -0.1839
     43 C21        17.1910   -8.3390   -5.1310 C.2       1 C2E         0.2340
     44 N21        16.6160   -9.4520   -5.6430 N.pl3     1 C2E        -0.2807
     45 N31        17.4520   -7.2890   -5.9550 N.2       1 C2E        -0.2765
     46 C41        18.0290   -6.1550   -5.5070 C.2       1 C2E         0.1159
     47 H1         14.1537    1.0032   -7.2598 H         1 C2E         0.0647
     48 H2         15.8398    0.4511   -7.5405 H         1 C2E         0.0647
     49 H3         15.7794    2.3360   -5.9404 H         1 C2E         0.0655
     50 H4         16.5136   -0.3957   -4.8152 H         1 C2E         0.0712
     51 H5         16.8446    0.4767   -2.6617 H         1 C2E         0.0681
     52 H6         18.1019    2.3136   -3.3879 H         1 C2E         0.2102
     53 H7         14.7251    2.3086   -2.7528 H         1 C2E         0.0998
     54 H8         13.4231   -0.6941   -4.2990 H         1 C2E         0.1179
     55 H9         14.3174   -1.7729    2.0773 H         1 C2E         0.2515
     56 H10        16.2823    1.1598    1.9308 H         1 C2E         0.1897
     57 H11        15.6512   -0.1501    2.9644 H         1 C2E         0.1897
     58 H12        19.7023   -0.8683   -7.8723 H         1 C2E         0.0647
     59 H13        18.0261   -0.2296   -7.7774 H         1 C2E         0.0647
     60 H14        18.1098   -2.2735   -9.1938 H         1 C2E         0.0655
     61 H15        16.7784   -2.4927   -6.4607 H         1 C2E         0.0712
     62 H16        16.1620   -4.7495   -6.9507 H         1 C2E         0.0681
     63 H17        15.6155   -4.3550   -9.2120 H         1 C2E         0.2102
     64 H18        18.6113   -5.4111   -8.1219 H         1 C2E         0.0998
     65 H19        19.2815   -3.1924   -5.2184 H         1 C2E         0.1179
     66 H20        17.2590   -9.0965   -3.2235 H         1 C2E         0.2515
     67 H21        16.3850   -9.4976   -6.6457 H         1 C2E         0.1897
     68 H22        16.4094  -10.2535   -5.0299 H         1 C2E         0.1897
@<TRIPOS>BOND
     1    1    2 ar 
     2    1    3 ar 
     3    1    4 1  
     4    1   32 1  
     5    4    5 1  
     6    5    6 1  
     7    6    7 1  
     8    6    8 1  
     9    7   12 1  
    10    8    9 1  
    11    8   10 1  
    12    9   24 1  
    13   10   11 1  
    14   10   12 1  
    15   12   13 1  
    16   13   14 1  
    17   13   23 1  
    18   14   15 2  
    19   15   16 1  
    20   16   17 1  
    21   16   23 2  
    22   17   18 2  
    23   17   19 am 
    24   19   20 am 
    25   20   21 1  
    26   20   22 2  
    27   22   23 1  
    28   24   25 ar 
    29   24   26 ar 
    30   24   27 1  
    31   27   28 1  
    32   28   29 1  
    33   29   30 1  
    34   29   31 1  
    35   30   35 1  
    36   31   32 1  
    37   31   33 1  
    38   33   34 1  
    39   33   35 1  
    40   35   36 1  
    41   36   37 1  
    42   36   46 1  
    43   37   38 2  
    44   38   39 1  
    45   39   40 1  
    46   39   46 2  
    47   40   41 2  
    48   40   42 am 
    49   42   43 am 
    50   43   44 1  
    51   43   45 2  
    52   45   46 1  
    53    5   47 1  
    54    5   48 1  
    55    6   49 1  
    56    8   50 1  
    57   10   51 1  
    58   11   52 1  
    59   12   53 1  
    60   14   54 1  
    61   19   55 1  
    62   21   56 1  
    63   21   57 1  
    64   28   58 1  
    65   28   59 1  
    66   29   60 1  
    67   31   61 1  
    68   33   62 1  
    69   34   63 1  
    70   35   64 1  
    71   37   65 1  
    72   42   66 1  
    73   44   67 1  
    74   44   68 1  
@<TRIPOS>SUBSTRUCTURE
     1 C2E         1

