### 
### Created by X-TOOL on Fri Sep 26 17:34:45 2014
### 

@<TRIPOS>MOLECULE
3evd_ligand
   45    47     1     0     0
SMALL
GAST_HUCK


@<TRIPOS>ATOM
      1 PG         27.9710   30.7380  -39.5880 P.3       1 GTP         0.1879
      2 O1G        26.6240   31.5970  -39.3930 O.co2     1 GTP        -0.6091
      3 O2G        28.9720   31.2320  -38.4290 O.co2     1 GTP        -0.6091
      4 O3G        28.5450   30.9060  -40.9410 O.co2     1 GTP        -0.6091
      5 O3B        27.5810   29.2110  -39.2650 O.3       1 GTP        -0.1546
      6 PB         28.5580   27.9930  -39.6620 P.3       1 GTP         0.3553
      7 O1B        29.7460   28.0240  -38.5750 O.co2     1 GTP        -0.5652
      8 O2B        27.8460   26.6950  -39.6910 O.co2     1 GTP        -0.5652
      9 O3A        29.2460   28.3410  -41.0790 O.3       1 GTP        -0.1171
     10 PA         28.4870   28.0480  -42.4730 P.3       1 GTP         0.3266
     11 O1A        29.3830   28.7670  -43.6040 O.co2     1 GTP        -0.5692
     12 O2A        27.0980   28.5630  -42.4560 O.co2     1 GTP        -0.5692
     13 O5'        28.5910   26.4690  -42.7920 O.3       1 GTP        -0.2441
     14 C5'        27.4640   25.7480  -43.3330 C.3       1 GTP         0.1131
     15 C4'        27.8970   24.7890  -44.4400 C.3       1 GTP         0.1190
     16 O4'        27.7520   25.4000  -45.7460 O.3       1 GTP        -0.3347
     17 C3'        29.3310   24.2900  -44.4150 C.3       1 GTP         0.1151
     18 O3'        29.4800   23.2070  -43.5090 O.3       1 GTP        -0.3864
     19 C2'        29.5660   23.8440  -45.8600 C.3       1 GTP         0.1407
     20 O2'        29.1700   22.5110  -46.1110 O.3       1 GTP        -0.3835
     21 C1'        28.6860   24.8210  -46.6470 C.3       1 GTP         0.2218
     22 N9         29.4030   25.8960  -47.3310 N.pl3     1 GTP        -0.0954
     23 C8         30.0590   26.9590  -46.7530 C.2       1 GTP         0.1855
     24 N7         30.5660   27.7830  -47.6290 N.2       1 GTP        -0.1929
     25 C5         30.2370   27.2320  -48.8580 C.2       1 GTP         0.2558
     26 C6         30.5070   27.6910  -50.1740 C.2       1 GTP         0.2628
     27 O6         31.1040   28.7150  -50.5240 O.2       1 GTP        -0.3594
     28 N1         29.9970   26.8230  -51.1330 N.am      1 GTP        -0.2478
     29 C2         29.3120   25.6640  -50.8640 C.cat     1 GTP         0.2041
     30 N2         28.9060   24.9570  -51.9260 N.pl3     1 GTP        -0.3327
     31 N3         29.0470   25.2260  -49.6420 N.pl3     1 GTP        -0.1901
     32 C4         29.5340   26.0570  -48.6940 C.2       1 GTP         0.3268
     33 H1         26.7424   26.4685  -43.7454 H         1 GTP         0.0648
     34 H2         26.9868   25.1719  -42.5265 H         1 GTP         0.0648
     35 H3         27.2340   23.9138  -44.3745 H         1 GTP         0.0651
     36 H4         30.0241   25.0970  -44.1352 H         1 GTP         0.0648
     37 H5         28.9138   22.4923  -43.7756 H         1 GTP         0.2100
     38 H6         30.6260   23.9579  -46.1309 H         1 GTP         0.0677
     39 H7         29.6619   21.9245  -45.5485 H         1 GTP         0.2101
     40 H8         28.1418   24.2441  -47.4093 H         1 GTP         0.1021
     41 H9         30.1460   27.0981  -45.6764 H         1 GTP         0.1823
     42 H10        30.1403   27.0615  -52.0935 H         1 GTP         0.1819
     43 H11        28.3869   24.0776  -51.7914 H         1 GTP         0.1774
     44 H12        29.1127   25.2925  -52.8776 H         1 GTP         0.1774
     45 H13        28.5321   24.3573  -49.4391 H         1 GTP         0.2519
@<TRIPOS>BOND
     1    1    2 ar 
     2    1    3 ar 
     3    1    4 ar 
     4    1    5 1  
     5    5    6 1  
     6    6    7 ar 
     7    6    8 ar 
     8    6    9 1  
     9    9   10 1  
    10   10   11 ar 
    11   10   12 ar 
    12   10   13 1  
    13   13   14 1  
    14   14   15 1  
    15   15   16 1  
    16   15   17 1  
    17   16   21 1  
    18   17   18 1  
    19   17   19 1  
    20   19   20 1  
    21   19   21 1  
    22   21   22 1  
    23   22   23 1  
    24   22   32 1  
    25   23   24 2  
    26   24   25 1  
    27   25   26 1  
    28   25   32 2  
    29   26   27 2  
    30   26   28 am 
    31   28   29 ar 
    32   29   30 ar 
    33   29   31 ar 
    34   31   32 1  
    35   14   33 1  
    36   14   34 1  
    37   15   35 1  
    38   17   36 1  
    39   18   37 1  
    40   19   38 1  
    41   20   39 1  
    42   21   40 1  
    43   23   41 1  
    44   28   42 1  
    45   30   43 1  
    46   30   44 1  
    47   31   45 1  
@<TRIPOS>SUBSTRUCTURE
     1 GTP         1

