### 
### Created by X-TOOL on Fri Sep 26 17:34:43 2014
### 

@<TRIPOS>MOLECULE
2wqp_ligand
   44    43     1     0     0
SMALL
GAST_HUCK


@<TRIPOS>ATOM
      1 OAE        95.7180  -19.7390   55.4620 O.co2     1 WQP        -0.5536
      2 PAD        96.2220  -18.8830   54.3400 P.3       1 WQP         0.2036
      3 OAA        96.6930  -17.4820   54.7370 O.co2     1 WQP        -0.5536
      4 OAC        95.3710  -19.0110   53.0950 O.co2     1 WQP        -0.5536
      5 OAH        97.6280  -19.5900   53.9530 O.3       1 WQP        -0.2590
      6 CAN        97.9380  -20.3200   52.7920 C.3       1 WQP         0.1434
      7 CAM        99.4330  -20.4590   52.7460 C.2       1 WQP         0.0686
      8 OAV       100.1020  -19.6700   53.4430 O.co2     1 WQP        -0.5661
      9 OAL        99.9400  -21.3300   52.0000 O.co2     1 WQP        -0.5661
     10 CAO        97.2590  -21.6850   52.7730 C.3       1 WQP         0.0182
     11 CAP        96.5660  -21.8730   51.4250 C.3       1 WQP         0.0848
     12 OAW        95.4130  -21.0130   51.4280 O.3       1 WQP        -0.3892
     13 CAQ        96.1790  -23.3480   51.1770 C.3       1 WQP         0.0963
     14 NAI        95.2390  -23.7710   52.2060 N.am      1 WQP        -0.2790
     15 CAF        95.5590  -24.6390   53.1650 C.2       1 WQP         0.1733
     16 CAG        94.4740  -24.9830   54.1330 C.3       1 WQP         0.0257
     17 OAB        96.6610  -25.1380   53.2590 O.2       1 WQP        -0.3974
     18 CAR        95.5570  -23.5740   49.7890 C.3       1 WQP         0.1087
     19 OAX        96.3020  -22.9300   48.7410 O.3       1 WQP        -0.3868
     20 CAS        95.4180  -25.0540   49.4470 C.3       1 WQP         0.1112
     21 OAJ        96.7320  -25.6300   49.2750 O.3       1 WQP        -0.3865
     22 CAT        94.5900  -25.2840   48.1710 C.3       1 WQP         0.1065
     23 OAY        93.3600  -24.5370   48.1780 O.3       1 WQP        -0.3869
     24 CAU        94.2630  -26.7630   48.0570 C.3       1 WQP         0.0727
     25 OAK        93.2800  -26.9750   47.0410 O.3       1 WQP        -0.3924
     26 H1         97.5990  -19.7546   51.9114 H         1 WQP         0.0820
     27 H2         96.5151  -21.7389   53.5815 H         1 WQP         0.0337
     28 H3         98.0121  -22.4742   52.9144 H         1 WQP         0.0337
     29 H4         97.2487  -21.5585   50.6219 H         1 WQP         0.0619
     30 H5         95.6917  -20.1120   51.5421 H         1 WQP         0.2099
     31 H6         97.0892  -23.9614   51.2501 H         1 WQP         0.0608
     32 H7         94.3131  -23.3935   52.1922 H         1 WQP         0.1856
     33 H8         94.8563  -25.7029   54.8716 H         1 WQP         0.0467
     34 H9         93.6269  -25.4287   53.5911 H         1 WQP         0.0467
     35 H10        94.1401  -24.0707   54.6490 H         1 WQP         0.0467
     36 H11        94.5490  -23.1340   49.8085 H         1 WQP         0.0644
     37 H12        97.1871  -23.2747   48.7254 H         1 WQP         0.2100
     38 H13        94.9128  -25.5579   50.2841 H         1 WQP         0.0647
     39 H14        97.1835  -25.1812   48.5698 H         1 WQP         0.2100
     40 H15        95.1875  -24.9733   47.3013 H         1 WQP         0.0643
     41 H16        92.8823  -24.7081   47.3748 H         1 WQP         0.2100
     42 H17        93.8735  -27.1242   49.0202 H         1 WQP         0.0584
     43 H18        95.1770  -27.3183   47.7996 H         1 WQP         0.0584
     44 H19        92.4892  -26.4975   47.2625 H         1 WQP         0.2095
@<TRIPOS>BOND
     1    1    2 ar 
     2    2    3 ar 
     3    2    4 ar 
     4    2    5 1  
     5    5    6 1  
     6    6    7 1  
     7    6   10 1  
     8    7    8 ar 
     9    7    9 ar 
    10   10   11 1  
    11   11   12 1  
    12   11   13 1  
    13   13   14 1  
    14   13   18 1  
    15   14   15 am 
    16   15   16 1  
    17   15   17 2  
    18   18   19 1  
    19   18   20 1  
    20   20   21 1  
    21   20   22 1  
    22   22   23 1  
    23   22   24 1  
    24   24   25 1  
    25    6   26 1  
    26   10   27 1  
    27   10   28 1  
    28   11   29 1  
    29   12   30 1  
    30   13   31 1  
    31   14   32 1  
    32   16   33 1  
    33   16   34 1  
    34   16   35 1  
    35   18   36 1  
    36   19   37 1  
    37   20   38 1  
    38   21   39 1  
    39   22   40 1  
    40   23   41 1  
    41   24   42 1  
    42   24   43 1  
    43   25   44 1  
@<TRIPOS>SUBSTRUCTURE
     1 WQP         1

