### 
### Created by X-TOOL on Fri Sep 26 17:34:56 2014
### 

@<TRIPOS>MOLECULE
3v4t_ligand
   64    66     1     0     0
SMALL
GAST_HUCK


@<TRIPOS>ATOM
      1 C1'       -39.6560    3.2280   10.6440 C.3       1 UD1         0.2196
      2 C2'       -39.5700    2.2520    9.4450 C.3       1 UD1         0.1260
      3 C3'       -38.3730    2.5650    8.5760 C.3       1 UD1         0.1114
      4 C4'       -38.5150    4.0000    8.0330 C.3       1 UD1         0.1117
      5 C5'       -38.5520    4.9810    9.2360 C.3       1 UD1         0.1133
      6 C6'       -38.7170    6.4400    8.7810 C.3       1 UD1         0.0730
      7 C7'       -40.4780    0.0830   10.3780 C.2       1 UD1         0.1734
      8 C8'       -40.0610   -1.3350   10.8480 C.3       1 UD1         0.0257
      9 N2'       -39.4560    0.8580    9.9600 N.am      1 UD1        -0.2762
     10 O1'       -38.5320    3.0060   11.5250 O.3       1 UD1        -0.2157
     11 O3'       -38.3520    1.6250    7.4460 O.3       1 UD1        -0.3867
     12 O4'       -37.3720    4.4430    7.1910 O.3       1 UD1        -0.3865
     13 O5'       -39.7060    4.5740   10.1400 O.3       1 UD1        -0.3366
     14 O6'       -39.9780    6.6980    8.0500 O.3       1 UD1        -0.3924
     15 O7'       -41.6180    0.5060   10.3590 O.2       1 UD1        -0.3974
     16 N1        -35.6660    8.5570   16.9260 N.am      1 UD1        -0.1592
     17 C2        -35.1750    8.9820   18.1750 C.2       1 UD1         0.3328
     18 N3        -35.6580    8.3650   19.3020 N.am      1 UD1        -0.1865
     19 C4        -36.6070    7.3410   19.3240 C.2       1 UD1         0.1822
     20 C5        -37.1050    6.9240   18.0190 C.2       1 UD1         0.0062
     21 C6        -36.6300    7.5270   16.8770 C.2       1 UD1         0.0591
     22 O2        -34.3050    9.9070   18.2720 O.2       1 UD1        -0.3815
     23 O4        -36.9880    6.8320   20.3630 O.2       1 UD1        -0.4124
     24 C1B       -35.1650    9.1850   15.6470 C.3       1 UD1         0.2059
     25 C2B       -34.3670    8.2810   14.7660 C.3       1 UD1         0.1387
     26 O2'       -33.1030    7.6670   15.2660 O.3       1 UD1        -0.3836
     27 C3B       -34.4030    9.1040   13.4410 C.3       1 UD1         0.1149
     28 C4B       -35.9030    9.5510   13.4750 C.3       1 UD1         0.1189
     29 O4B       -36.2790    9.5760   14.8610 O.3       1 UD1        -0.3363
     30 O3B       -33.3280   10.1240   13.5240 O.3       1 UD1        -0.3864
     31 C5B       -36.9230    8.6110   12.7810 C.3       1 UD1         0.1128
     32 O5B       -37.0340    7.2930   13.3990 O.3       1 UD1        -0.2476
     33 PA        -38.3760    6.5320   13.5120 P.3       1 UD1         0.2972
     34 O1A       -39.4360    7.3450   12.9320 O.co2     1 UD1        -0.6127
     35 O2A       -38.6530    6.2450   14.9120 O.co2     1 UD1        -0.6127
     36 O3A       -38.4250    5.3470   12.5760 O.3       1 UD1        -0.1318
     37 PB        -38.3780    3.7970   12.8940 P.3       1 UD1         0.2996
     38 O1B       -39.5700    3.5020   13.6370 O.co2     1 UD1        -0.6127
     39 O2B       -37.1770    3.3390   13.5340 O.co2     1 UD1        -0.6127
     40 H1        -40.5812    3.0303   11.2052 H         1 UD1         0.0996
     41 H2        -40.4846    2.3441    8.8408 H         1 UD1         0.0637
     42 H3        -37.4461    2.4729    9.1611 H         1 UD1         0.0645
     43 H4        -39.4457    4.0688    7.4508 H         1 UD1         0.0647
     44 H5        -37.6080    4.8956    9.7942 H         1 UD1         0.0647
     45 H6        -37.8749    6.6949    8.1208 H         1 UD1         0.0584
     46 H7        -38.6937    7.0858    9.6711 H         1 UD1         0.0584
     47 H8        -40.9535   -1.8921   11.1688 H         1 UD1         0.0467
     48 H9        -39.3591   -1.2504   11.6907 H         1 UD1         0.0467
     49 H10       -39.5747   -1.8682   10.0178 H         1 UD1         0.0467
     50 H11       -38.5389    0.4613    9.9992 H         1 UD1         0.1857
     51 H12       -38.2646    0.7381    7.7749 H         1 UD1         0.2100
     52 H13       -37.2995    3.8748    6.4332 H         1 UD1         0.2100
     53 H14       -40.0157    7.6136    7.7992 H         1 UD1         0.2095
     54 H15       -35.2996    8.6754   20.1825 H         1 UD1         0.2259
     55 H16       -37.8527    6.1355   17.9479 H         1 UD1         0.0258
     56 H17       -37.0080    7.2008   15.9092 H         1 UD1         0.1178
     57 H18       -34.5547   10.0620   15.9084 H         1 UD1         0.0997
     58 H19       -34.9963    7.3967   14.5871 H         1 UD1         0.0676
     59 H20       -32.7245    7.1244   14.5842 H         1 UD1         0.2101
     60 H21       -34.2193    8.4812   12.5531 H         1 UD1         0.0648
     61 H22       -35.9831   10.5527   13.0276 H         1 UD1         0.0651
     62 H23       -32.4816    9.6939   13.4906 H         1 UD1         0.2100
     63 H24       -36.6127    8.4768   11.7343 H         1 UD1         0.0648
     64 H25       -37.9121    9.0914   12.8116 H         1 UD1         0.0648
@<TRIPOS>BOND
     1    1    2 1  
     2   10    1 1  
     3    1   13 1  
     4    2    3 1  
     5    2    9 1  
     6    3    4 1  
     7    3   11 1  
     8    5    4 1  
     9    4   12 1  
    10    5    6 1  
    11   13    5 1  
    12    6   14 1  
    13    7    8 1  
    14    9    7 am 
    15    7   15 2  
    16   37   10 1  
    17   16   17 am 
    18   16   21 1  
    19   24   16 1  
    20   17   18 am 
    21   17   22 2  
    22   18   19 am 
    23   20   19 1  
    24   19   23 2  
    25   21   20 2  
    26   24   25 1  
    27   29   24 1  
    28   25   26 1  
    29   27   25 1  
    30   28   27 1  
    31   27   30 1  
    32   28   29 1  
    33   31   28 1  
    34   32   31 1  
    35   33   32 1  
    36   33   34 ar 
    37   33   35 ar 
    38   36   33 1  
    39   36   37 1  
    40   37   38 ar 
    41   37   39 ar 
    42    1   40 1  
    43    2   41 1  
    44    3   42 1  
    45    4   43 1  
    46    5   44 1  
    47    6   45 1  
    48    6   46 1  
    49    8   47 1  
    50    8   48 1  
    51    8   49 1  
    52    9   50 1  
    53   11   51 1  
    54   12   52 1  
    55   14   53 1  
    56   18   54 1  
    57   20   55 1  
    58   21   56 1  
    59   24   57 1  
    60   25   58 1  
    61   26   59 1  
    62   27   60 1  
    63   28   61 1  
    64   30   62 1  
    65   31   63 1  
    66   31   64 1  
@<TRIPOS>SUBSTRUCTURE
     1 UD1         1

