REMARK  2 active torsions:
REMARK  status: ('A' for Active; 'I' for Inactive)
REMARK    1  A    between atoms: C6_7  and  C7_8 
REMARK       I    between atoms: C7_8  and  N9_10 
REMARK    2  A    between atoms: C18_19  and  O19_20 
ROOT
ATOM      1  C1  L81 d           1.692  -1.416  -3.003  0.00  0.00     0.021 C 
ATOM      2  C19 L81 d           1.832   0.631  -4.420  0.00  0.00     0.021 C 
ATOM      3  C2  L81 d           0.901  -0.245  -3.603  0.00  0.00    -0.002 C 
ATOM      4  C3  L81 d           0.170   0.558  -2.506  0.00  0.00     0.133 C 
ATOM      5  C4  L81 d          -0.254  -0.790  -4.418  0.00  0.00    -0.021 A 
ATOM      6  C5  L81 d          -0.257  -1.428  -5.659  0.00  0.00     0.030 A 
ATOM      7  C6  L81 d          -1.450  -1.941  -6.192  0.00  0.00     0.066 A 
ATOM      8  C18 L81 d          -2.645  -1.803  -5.450  0.00  0.00     0.083 A 
ATOM      9  C20 L81 d          -2.628  -1.181  -4.195  0.00  0.00     0.067 A 
ATOM     10  C21 L81 d          -1.432  -0.687  -3.690  0.00  0.00     0.037 A 
ATOM     11  N5  L81 d          -1.160  -0.044  -2.490  0.00  0.00    -0.388 N 
ATOM     12  H20 L81 d          -1.811   0.002  -1.693  0.00  0.00     0.159 HD
ENDROOT
BRANCH   7  13
ATOM     13  C7  L81 d          -1.444  -2.599  -7.547  0.00  0.00     0.257 C 
ATOM     14  O8  L81 d          -1.763  -3.783  -7.651  0.00  0.00    -0.267 OA
ATOM     15  N9  L81 d          -1.147  -1.842  -8.648  0.00  0.00    -0.339 N 
ATOM     16  C10 L81 d          -1.102  -2.388 -10.023  0.00  0.00     0.165 C 
ATOM     17  C17 L81 d          -1.033  -0.376  -8.629  0.00  0.00     0.165 C 
ATOM     18  C11 L81 d          -1.373  -1.167 -10.857  0.00  0.00    -0.032 A 
ATOM     19  C12 L81 d          -1.626  -1.055 -12.217  0.00  0.00     0.009 A 
ATOM     20  C16 L81 d          -1.329  -0.017 -10.061  0.00  0.00    -0.032 A 
ATOM     21  C13 L81 d          -1.839   0.192 -12.783  0.00  0.00     0.001 A 
ATOM     22  C14 L81 d          -1.810   1.330 -11.991  0.00  0.00     0.001 A 
ATOM     23  C15 L81 d          -1.554   1.228 -10.634  0.00  0.00     0.009 A 
ENDBRANCH   7  13
BRANCH   8  24
ATOM     24  O19 L81 d          -3.815  -2.314  -5.939  0.00  0.00    -0.360 OA
ATOM     25  H18 L81 d          -3.724  -3.252  -6.058  0.00  0.00     0.217 HD
ENDBRANCH   8  24
TORSDOF 2
