### 
### Created by X-TOOL on Fri Sep 26 17:34:51 2014
### 

@<TRIPOS>MOLECULE
3qt6_ligand
   29    29     1     0     0
SMALL
GAST_HUCK


@<TRIPOS>ATOM
      1 C         -25.2360  -23.2340  -18.4070 C.2       1 MOL         0.0603
      2 N         -27.0380  -22.4710  -19.7900 N.am      1 MOL        -0.2553
      3 O         -24.5740  -23.1160  -17.3430 O.co2     1 MOL        -0.5666
      4 CA        -26.6360  -22.7670  -18.4540 C.3       1 MOL         0.0972
      5 CB        -27.5340  -23.8540  -17.9730 C.3       1 MOL        -0.0159
      6 CD        -27.8900  -23.4920  -20.2990 C.3       1 MOL         0.0362
      7 CG        -28.4920  -24.1450  -19.0980 C.3       1 MOL        -0.0288
      8 OAB       -27.0920  -21.2310  -21.6910 O.2       1 MOL        -0.3938
      9 OAC       -25.4300  -14.6190  -19.8330 O.co2     1 MOL        -0.5891
     10 OAD       -23.4860  -18.0640  -22.0650 O.co2     1 MOL        -0.5555
     11 OAF       -23.8420  -15.7710  -18.3320 O.co2     1 MOL        -0.5891
     12 OAG       -23.1720  -15.3450  -20.5960 O.co2     1 MOL        -0.5891
     13 OAH       -23.2270  -18.8310  -19.6940 O.co2     1 MOL        -0.5555
     14 CAK       -25.7610  -20.2670  -20.0230 C.3       1 MOL         0.1732
     15 OAM       -25.2630  -19.4300  -21.0070 O.3       1 MOL        -0.2250
     16 OAN       -24.9670  -17.0590  -20.2170 O.3       1 MOL        -0.1547
     17 CAP       -26.6590  -21.3330  -20.5550 C.2       1 MOL         0.2119
     18 PAS       -24.3680  -15.6790  -19.7420 P.3       1 MOL         0.2070
     19 PAT       -24.1880  -18.3240  -20.7570 P.3       1 MOL         0.3298
     20 OXT       -24.6740  -23.7410  -19.4210 O.co2     1 MOL        -0.5666
     21 H1        -26.7447  -21.8731  -17.8223 H         1 MOL         0.0728
     22 H2        -28.0852  -23.5245  -17.0799 H         1 MOL         0.0306
     23 H3        -26.9475  -24.7526  -17.7311 H         1 MOL         0.0306
     24 H4        -27.3095  -24.2215  -20.8827 H         1 MOL         0.0524
     25 H5        -28.6755  -23.0562  -20.9338 H         1 MOL         0.0524
     26 H6        -29.4826  -23.7183  -18.8821 H         1 MOL         0.0286
     27 H7        -28.5861  -25.2297  -19.2545 H         1 MOL         0.0286
     28 H8        -26.3284  -19.6599  -19.3023 H         1 MOL         0.0866
     29 H9        -24.9139  -20.7472  -19.5113 H         1 MOL         0.0866
@<TRIPOS>BOND
     1    1    3 ar 
     2    4    1 1  
     3    1   20 ar 
     4    2    4 1  
     5    2    6 1  
     6   17    2 am 
     7    4    5 1  
     8    7    5 1  
     9    6    7 1  
    10   17    8 2  
    11   18    9 ar 
    12   19   10 ar 
    13   18   11 ar 
    14   18   12 ar 
    15   19   13 ar 
    16   15   14 1  
    17   14   17 1  
    18   19   15 1  
    19   16   18 1  
    20   16   19 1  
    21    4   21 1  
    22    5   22 1  
    23    5   23 1  
    24    6   24 1  
    25    6   25 1  
    26    7   26 1  
    27    7   27 1  
    28   14   28 1  
    29   14   29 1  
@<TRIPOS>SUBSTRUCTURE
     1 MOL         1

