2g71_ligand

Created by X-TOOL on Fri Sep 26 17:34:38 2014
 39 40  0  0  0  0  0  0  0  0999 V2000
   28.0050   43.2620   16.7460  C 0  0  0  2  0  3
   28.5970   43.7970   17.8890  C 0  0  0  1  0  3
   28.8530   42.9050   19.1070  C 0  0  0  3  0  4
   29.7420   43.5700   20.0600  N 0  3  0  3  0  4
   29.2360   44.9090   20.4020  C 0  0  0  2  0  4
   29.8960   45.4340   21.6800  C 0  0  0  3  0  4
   29.3460   46.6000   22.0480  F 0  0  0  1  0  1
   29.5340   45.7790   19.1780  C 0  0  0  3  0  4
   28.9140   45.1530   17.9280  C 0  0  0  1  0  3
   28.6350   45.9520   16.8230  C 0  0  0  2  0  3
   28.0440   45.4240   15.6800  C 0  0  0  2  0  3
   27.7300   44.0670   15.6450  C 0  0  0  1  0  3
   26.9860   43.3480   14.2190  S 0  0  0  1  0  4
   25.6500   42.9830   14.6130  O 0  0  0  1  0  1
   27.8700   42.3030   13.7680  O 0  0  0  1  0  1
   26.8340   44.4240   13.0250  N 0  0  0  2  0  3
   27.9740   44.6230   12.1160  C 0  0  0  3  0  4
   27.7140   44.2790   10.6630  C 0  0  0  3  0  4
   27.0420   45.2940    9.7870  C 0  0  0  1  0  4
   27.0200   44.9920    8.4790  F 0  0  0  1  0  1
   27.6450   46.4890    9.8000  F 0  0  0  1  0  1
   25.7740   45.5770   10.1170  F 0  0  0  1  0  1
   27.7562   42.2074   16.7146  H 0  0  0  1  0  1
   29.3186   41.9655   18.7746  H 0  0  0  1  0  1
   27.8950   42.6849   19.6006  H 0  0  0  1  0  1
   30.6588   43.6581   19.6503  H 0  0  0  1  0  1
   29.8010   43.0150   20.8994  H 0  0  0  1  0  1
   28.1491   44.8669   20.5656  H 0  0  0  1  0  1
   30.9706   45.5823   21.4978  H 0  0  0  1  0  1
   29.7589   44.6987   22.4865  H 0  0  0  1  0  1
   30.6229   45.8583   19.0438  H 0  0  0  1  0  1
   29.1094   46.7820   19.3319  H 0  0  0  1  0  1
   28.8833   47.0067   16.8538  H 0  0  0  1  0  1
   27.8306   46.0595   14.8281  H 0  0  0  1  0  1
   25.9869   44.9420   12.9062  H 0  0  0  1  0  1
   28.8044   43.9945   12.4702  H 0  0  0  1  0  1
   28.2679   45.6818   12.1668  H 0  0  0  1  0  1
   27.0851   43.3766   10.6524  H 0  0  0  1  0  1
   28.6883   44.0523   10.2055  H 0  0  0  1  0  1
  1  2  4  0  0  1
  1 12  4  0  0  1
  2  3  1  0  0  1
  2  9  4  0  0  1
  3  4  1  0  0  1
  4  5  1  0  0  1
  5  6  1  0  0  2
  5  8  1  0  0  1
  6  7  1  0  0  2
  8  9  1  0  0  1
  9 10  4  0  0  1
 10 11  4  0  0  1
 11 12  4  0  0  1
 12 13  1  0  0  2
 13 14  2  0  0  2
 13 15  2  0  0  2
 13 16  1  0  0  2
 16 17  1  0  0  2
 17 18  1  0  0  2
 18 19  1  0  0  2
 19 20  1  0  0  2
 19 21  1  0  0  2
 19 22  1  0  0  2
  1 23  1  0  0  2
  3 24  1  0  0  2
  3 25  1  0  0  2
  4 26  1  0  0  2
  4 27  1  0  0  2
  5 28  1  0  0  2
  6 29  1  0  0  2
  6 30  1  0  0  2
  8 31  1  0  0  2
  8 32  1  0  0  2
 10 33  1  0  0  2
 11 34  1  0  0  2
 16 35  1  0  0  2
 17 36  1  0  0  2
 17 37  1  0  0  2
 18 38  1  0  0  2
 18 39  1  0  0  2
M  END
> <MOLECULAR_FORMULA>
C13H17N2O2SF4

> <MOLECULAR_WEIGHT>
341.2

> <NUM_HB_ATOMS>
4  

> <NUM_ROTOR>
4  

> <XLOGP2>
2.40 

$$$$
