REMARK  5 active torsions:
REMARK  status: ('A' for Active; 'I' for Inactive)
REMARK    1  A    between atoms: O1_1  and  C1_2 
REMARK    2  A    between atoms: C1_2  and  C2_3 
REMARK    3  A    between atoms: C6_8  and  S1_13 
REMARK    4  A    between atoms: S1_13  and  N2_16 
REMARK    5  A    between atoms: N2_16  and  C11_17 
ROOT
ATOM      1  C2  F83 d          29.046  45.001  20.221  0.00  0.00     0.213 C 
ATOM      2  N1  F83 d          29.653  43.683  19.982  0.00  0.00    -0.065 N 
ATOM      3  C3  F83 d          28.895  42.949  18.959  0.00  0.00     0.272 C 
ATOM      4  C4  F83 d          28.706  43.794  17.693  0.00  0.00    -0.025 A 
ATOM      5  C5  F83 d          28.308  43.171  16.516  0.00  0.00     0.034 A 
ATOM      6  C6  F83 d          28.081  43.924  15.368  0.00  0.00     0.080 A 
ATOM      7  C7  F83 d          28.256  45.304  15.397  0.00  0.00     0.026 A 
ATOM      8  C8  F83 d          28.658  45.930  16.573  0.00  0.00     0.009 A 
ATOM      9  C9  F83 d          28.885  45.177  17.723  0.00  0.00    -0.048 A 
ATOM     10  C10 F83 d          29.329  45.884  19.003  0.00  0.00     0.074 C 
ATOM     11  H5  F83 d          29.650  43.155  20.841  0.00  0.00     0.278 HD
ATOM     12  H6  F83 d          30.602  43.807  19.667  0.00  0.00     0.278 HD
ENDROOT
BRANCH   6  13
ATOM     13  S1  F83 d          27.565  43.138  13.893  0.00  0.00     0.263 S 
ATOM     14  O2  F83 d          26.141  42.969  13.904  0.00  0.00    -0.200 OA
ATOM     15  O3  F83 d          28.217  41.791  13.790  0.00  0.00    -0.200 OA
BRANCH  13  16
ATOM     16  N2  F83 d          28.020  44.039  12.615  0.00  0.00    -0.281 N 
ATOM     17  H14 F83 d          28.988  44.053  12.366  0.00  0.00     0.179 HD
BRANCH  16  18
ATOM     18  C11 F83 d          27.081  44.833  11.809  0.00  0.00     0.042 A 
ATOM     19  C12 F83 d          26.037  45.536  12.405  0.00  0.00     0.032 A 
ATOM     20  C13 F83 d          25.208  46.343  11.629  0.00  0.00     0.026 A 
ATOM     21  C14 F83 d          25.419  46.451  10.255  0.00  0.00     0.034 A 
ATOM     22  C15 F83 d          26.457  45.742   9.660  0.00  0.00     0.026 A 
ATOM     23 CL1  F83 d          24.417  47.476   9.287  0.00  0.00    -0.084 Cl
ATOM     24  C16 F83 d          27.286  44.932  10.436  0.00  0.00     0.032 A 
ENDBRANCH  16  18
ENDBRANCH  13  16
ENDBRANCH   6  13
BRANCH   1  25
ATOM     25  C1  F83 d          29.646  45.638  21.475  0.00  0.00     0.197 C 
BRANCH  25  26
ATOM     26  O1  F83 d          29.255  44.867  22.615  0.00  0.00    -0.399 OA
ATOM     27  H1  F83 d          29.623  45.255  23.400  0.00  0.00     0.209 HD
ENDBRANCH  25  26
ENDBRANCH   1  25
TORSDOF 5
