REMARK  0 active torsions:
REMARK  status: ('A' for Active; 'I' for Inactive)
ROOT
ATOM      1 BR1  K22 d          22.581   8.442  16.782  0.00  0.00    -0.047 Br
ATOM      2  C5  K22 d          22.191   7.858  18.532  0.00  0.00     0.058 A 
ATOM      3  C2  K22 d          21.213   8.612  19.149  0.00  0.00     0.049 A 
ATOM      4 BR2  K22 d          20.327  10.052  18.253  0.00  0.00    -0.048 Br
ATOM      5  C7  K22 d          22.805   6.786  19.223  0.00  0.00     0.081 A 
ATOM      6  N14 K22 d          23.759   5.877  18.943  0.00  0.00    -0.330 N 
ATOM      7  C13 K22 d          23.931   5.075  20.033  0.00  0.00     0.177 A 
ATOM      8  S10 K22 d          24.965   3.798  20.219  0.00  0.00    -0.041 SA
ATOM      9  N6  K22 d          23.103   5.464  21.007  0.00  0.00    -0.330 N 
ATOM     10  C8  K22 d          22.413   6.498  20.540  0.00  0.00     0.081 A 
ATOM     11  C4  K22 d          21.445   7.253  21.154  0.00  0.00     0.058 A 
ATOM     12 BR4  K22 d          20.890   6.886  22.937  0.00  0.00    -0.047 Br
ATOM     13  C3  K22 d          20.874   8.278  20.441  0.00  0.00     0.049 A 
ATOM     14 BR3  K22 d          19.575   9.270  21.298  0.00  0.00    -0.048 Br
ATOM     15  H1  K22 d          24.258   5.803  18.080  0.00  0.00     0.168 HD
ATOM     16  H2  K22 d          23.019   5.054  21.915  0.00  0.00     0.168 HD
ENDROOT
TORSDOF 0
