### 
### Created by X-TOOL on Fri Sep 26 17:34:26 2014
### 

@<TRIPOS>MOLECULE
1s89_ligand
   11    10     1     0     0
SMALL
GAST_HUCK


@<TRIPOS>ATOM
      1 P          84.6780  -12.3560   66.4370 P.3       1 PGA         0.2032
      2 O1P        85.8790  -13.2020   65.7860 O.3       1 PGA        -0.2622
      3 O2P        85.0950  -12.2700   67.8480 O.co2     1 PGA        -0.5536
      4 O3P        84.7120  -11.0820   65.6450 O.co2     1 PGA        -0.5536
      5 O4P        83.4510  -13.1570   66.2180 O.co2     1 PGA        -0.5536
      6 C2         86.1720  -14.4750   66.3080 C.3       1 PGA         0.1305
      7 C1         86.6910  -15.4050   65.2390 C.2       1 PGA         0.0653
      8 O1         85.9970  -15.5590   64.2090 O.co2     1 PGA        -0.5663
      9 O2         87.7920  -15.9850   65.4240 O.co2     1 PGA        -0.5663
     10 H1         85.2559  -14.9035   66.7405 H         1 PGA         0.0783
     11 H2         86.9351  -14.3722   67.0936 H         1 PGA         0.0783
@<TRIPOS>BOND
     1    1    2 1  
     2    1    3 ar 
     3    1    4 ar 
     4    1    5 ar 
     5    2    6 1  
     6    6    7 1  
     7    7    8 ar 
     8    7    9 ar 
     9    6   10 1  
    10    6   11 1  
@<TRIPOS>SUBSTRUCTURE
     1 PGA         1

