### 
### Created by X-TOOL on Fri Sep 26 17:34:20 2014
### 

@<TRIPOS>MOLECULE
1loq_ligand
   32    33     1     0     0
SMALL
GAST_HUCK


@<TRIPOS>ATOM
      1 O3P        39.1800   33.5330   36.3510 O.co2     1 MOL        -0.5537
      2 P          39.1180   34.7040   35.2570 P.3       1 MOL         0.2008
      3 O1P        40.3930   34.8170   34.4320 O.co2     1 MOL        -0.5537
      4 O2P        37.9500   34.4720   34.3790 O.co2     1 MOL        -0.5537
      5 O5'        38.7890   36.0630   36.0300 O.3       1 MOL        -0.2734
      6 C5'        39.7460   36.7240   36.8780 C.3       1 MOL         0.1072
      7 C4'        39.0580   37.9290   37.4710 C.3       1 MOL         0.1182
      8 O4'        39.9900   38.6330   38.3080 O.3       1 MOL        -0.3363
      9 C3'        38.4760   38.9770   36.5460 C.3       1 MOL         0.1149
     10 O3'        37.3050   39.5700   37.0970 O.3       1 MOL        -0.3864
     11 C2'        39.6020   40.0150   36.4750 C.3       1 MOL         0.1387
     12 O2'        39.1660   41.3750   36.2590 O.3       1 MOL        -0.3836
     13 C1'        40.2760   39.8940   37.8220 C.3       1 MOL         0.2059
     14 N1         41.7050   40.2160   37.9350 N.am      1 MOL        -0.1592
     15 C2         42.6390   39.4970   37.1920 C.2       1 MOL         0.3328
     16 O2         42.2840   38.6140   36.4530 O.2       1 MOL        -0.3815
     17 N3         43.9610   39.8690   37.3740 N.am      1 MOL        -0.1865
     18 C4         44.4400   40.8780   38.2140 C.2       1 MOL         0.1822
     19 O4         45.6380   41.0640   38.2540 O.2       1 MOL        -0.4124
     20 C5         43.4140   41.5670   38.9410 C.2       1 MOL         0.0062
     21 C6         42.1280   41.2370   38.7910 C.2       1 MOL         0.0591
     22 H1         40.6181   37.0406   36.2870 H         1 MOL         0.0639
     23 H2         40.0729   36.0444   37.6788 H         1 MOL         0.0639
     24 H3         38.2323   37.5458   38.0885 H         1 MOL         0.0650
     25 H4         38.2499   38.5548   35.5557 H         1 MOL         0.0648
     26 H5         36.9668   40.2207   36.4932 H         1 MOL         0.2100
     27 H6         40.3000   39.7452   35.6687 H         1 MOL         0.0676
     28 H7         38.5952   41.6402   36.9706 H         1 MOL         0.2101
     29 H8         39.7699   40.6186   38.4769 H         1 MOL         0.0997
     30 H9         44.6446   39.3621   36.8489 H         1 MOL         0.2259
     31 H10        43.6865   42.3699   39.6244 H         1 MOL         0.0258
     32 H11        41.3785   41.7861   39.3590 H         1 MOL         0.1178
@<TRIPOS>BOND
     1    2    1 ar 
     2    2    3 ar 
     3    2    4 ar 
     4    2    5 1  
     5    5    6 1  
     6    6    7 1  
     7    7    8 1  
     8    7    9 1  
     9    8   13 1  
    10    9   10 1  
    11    9   11 1  
    12   11   12 1  
    13   11   13 1  
    14   13   14 1  
    15   14   15 am 
    16   14   21 1  
    17   15   16 2  
    18   15   17 am 
    19   17   18 am 
    20   18   19 2  
    21   18   20 1  
    22   20   21 2  
    23    6   22 1  
    24    6   23 1  
    25    7   24 1  
    26    9   25 1  
    27   10   26 1  
    28   11   27 1  
    29   12   28 1  
    30   13   29 1  
    31   17   30 1  
    32   20   31 1  
    33   21   32 1  
@<TRIPOS>SUBSTRUCTURE
     1 MOL         1

