### 
### Created by X-TOOL on Fri Sep 26 17:34:44 2014
### 

@<TRIPOS>MOLECULE
3hv8_ligand
   70    76     1     0     0
SMALL
GAST_HUCK


@<TRIPOS>ATOM
      1 P1        -27.6550   -1.4580  -15.2170 P.3       1 C2E         0.2557
      2 O2P       -28.5730   -0.3880  -14.4650 O.co2     1 C2E        -0.6177
      3 O1P       -27.9830   -1.3500  -16.6530 O.co2     1 C2E        -0.6177
      4 O5'       -26.0930   -1.1470  -15.1600 O.3       1 C2E        -0.2514
      5 C5'       -25.5750   -0.1740  -16.0880 C.3       1 C2E         0.1128
      6 C4'       -24.9600   -0.7960  -17.3600 C.3       1 C2E         0.1243
      7 O4'       -24.4100    0.2680  -18.1740 O.3       1 C2E        -0.3343
      8 C3'       -23.7610   -1.6060  -16.8840 C.3       1 C2E         0.1541
      9 O3'       -23.6360   -2.7860  -17.6920 O.3       1 C2E        -0.2453
     10 C2'       -22.5620   -0.6400  -17.0340 C.3       1 C2E         0.1461
     11 O2'       -21.3320   -1.2950  -17.2810 O.3       1 C2E        -0.3831
     12 C1'       -22.9960    0.1650  -18.2590 C.3       1 C2E         0.2222
     13 N9        -22.4350    1.5050  -18.3410 N.pl3     1 C2E        -0.0954
     14 C8        -21.8560    2.2310  -17.3270 C.2       1 C2E         0.1855
     15 N7        -21.6340    3.4590  -17.7370 N.2       1 C2E        -0.1929
     16 C5        -22.0410    3.5650  -19.0360 C.2       1 C2E         0.2558
     17 C6        -22.0380    4.6210  -19.9750 C.2       1 C2E         0.2628
     18 O6        -21.6550    5.7600  -19.7010 O.2       1 C2E        -0.3594
     19 N1        -22.5100    4.3400  -21.1980 N.am      1 C2E        -0.2478
     20 C2        -22.9690    3.1030  -21.5290 C.cat     1 C2E         0.2041
     21 N2        -23.4410    2.8950  -22.7990 N.pl3     1 C2E        -0.3327
     22 N3        -22.9780    2.1130  -20.6670 N.pl3     1 C2E        -0.1901
     23 C4        -22.5320    2.3200  -19.4270 C.2       1 C2E         0.3268
     24 P11       -23.3530   -4.1700  -16.9210 P.3       1 C2E         0.2557
     25 O21       -23.1800   -5.2930  -18.0100 O.co2     1 C2E        -0.6177
     26 O11       -22.2310   -4.0300  -15.9710 O.co2     1 C2E        -0.6177
     27 O5A       -24.6600   -4.4130  -16.0560 O.3       1 C2E        -0.2514
     28 C5A       -25.9140   -4.5930  -16.7280 C.3       1 C2E         0.1128
     29 C4A       -27.0060   -4.9780  -15.7330 C.3       1 C2E         0.1243
     30 O4A       -26.6530   -6.2170  -15.1000 O.3       1 C2E        -0.3343
     31 C3A       -27.1990   -3.9900  -14.5810 C.3       1 C2E         0.1541
     32 O3A       -28.1030   -2.9400  -14.9020 O.3       1 C2E        -0.2453
     33 C2A       -27.8830   -4.8890  -13.5490 C.3       1 C2E         0.1461
     34 O2A       -29.2610   -5.0980  -13.9040 O.3       1 C2E        -0.3831
     35 C1A       -27.1730   -6.2270  -13.7860 C.3       1 C2E         0.2222
     36 N91       -26.0670   -6.3450  -12.8440 N.pl3     1 C2E        -0.0954
     37 C81       -24.7720   -5.9360  -12.9910 C.2       1 C2E         0.1855
     38 N71       -24.1150   -6.2410  -11.9060 N.2       1 C2E        -0.1929
     39 C51       -24.9320   -6.9190  -11.0450 C.2       1 C2E         0.2558
     40 C61       -24.7910   -7.5190   -9.7770 C.2       1 C2E         0.2628
     41 O61       -23.7610   -7.4320   -9.0970 O.2       1 C2E        -0.3594
     42 N11       -25.9020   -8.1230   -9.2800 N.am      1 C2E        -0.2478
     43 C21       -27.0940   -8.1670   -9.9510 C.cat     1 C2E         0.2041
     44 N21       -28.1740   -8.7580   -9.3590 N.pl3     1 C2E        -0.3327
     45 N31       -27.2490   -7.5930  -11.1150 N.pl3     1 C2E        -0.1901
     46 C41       -26.1870   -6.9940  -11.6660 C.2       1 C2E         0.3268
     47 H1        -24.7973    0.4131  -15.5776 H         1 C2E         0.0647
     48 H2        -26.3978    0.4909  -16.3895 H         1 C2E         0.0647
     49 H3        -25.6889   -1.4052  -17.9146 H         1 C2E         0.0655
     50 H4        -23.8797   -1.9006  -15.8309 H         1 C2E         0.0712
     51 H5        -22.4572   -0.0011  -16.1447 H         1 C2E         0.0681
     52 H6        -21.3966   -1.7942  -18.0867 H         1 C2E         0.2102
     53 H7        -22.7099   -0.3861  -19.1670 H         1 C2E         0.1022
     54 H8        -21.6180    1.8469  -16.3362 H         1 C2E         0.1823
     55 H9        -22.5251    5.0628  -21.8889 H         1 C2E         0.1819
     56 H10       -23.7935    1.9664  -23.0718 H         1 C2E         0.1774
     57 H11       -23.4432    3.6673  -23.4805 H         1 C2E         0.1774
     58 H12       -23.3264    1.1846  -20.9456 H         1 C2E         0.2519
     59 H13       -25.8109   -5.3908  -17.4783 H         1 C2E         0.0647
     60 H14       -26.1947   -3.6540  -17.2274 H         1 C2E         0.0647
     61 H15       -27.9535   -5.0846  -16.2815 H         1 C2E         0.0655
     62 H16       -26.2414   -3.5804  -14.2270 H         1 C2E         0.0712
     63 H17       -27.7786   -4.5113  -12.5212 H         1 C2E         0.0681
     64 H18       -29.7098   -4.2612  -13.9330 H         1 C2E         0.2102
     65 H19       -27.8754   -7.0636  -13.6565 H         1 C2E         0.1022
     66 H20       -24.3576   -5.4388  -13.8668 H         1 C2E         0.1823
     67 H21       -25.8460   -8.5563   -8.3805 H         1 C2E         0.1819
     68 H22       -29.0760   -8.7968   -9.8548 H         1 C2E         0.1774
     69 H23       -28.0863   -9.1648   -8.4168 H         1 C2E         0.1774
     70 H24       -28.1610   -7.6015  -11.5936 H         1 C2E         0.2519
@<TRIPOS>BOND
     1    1    2 ar 
     2    1    3 ar 
     3    1    4 1  
     4    1   32 1  
     5    4    5 1  
     6    5    6 1  
     7    6    7 1  
     8    6    8 1  
     9    7   12 1  
    10    8    9 1  
    11    8   10 1  
    12    9   24 1  
    13   10   11 1  
    14   10   12 1  
    15   12   13 1  
    16   13   14 1  
    17   13   23 1  
    18   14   15 2  
    19   15   16 1  
    20   16   17 1  
    21   16   23 2  
    22   17   18 2  
    23   17   19 am 
    24   19   20 ar 
    25   20   21 ar 
    26   20   22 ar 
    27   22   23 1  
    28   24   25 ar 
    29   24   26 ar 
    30   24   27 1  
    31   27   28 1  
    32   28   29 1  
    33   29   30 1  
    34   29   31 1  
    35   30   35 1  
    36   31   32 1  
    37   31   33 1  
    38   33   34 1  
    39   33   35 1  
    40   35   36 1  
    41   36   37 1  
    42   36   46 1  
    43   37   38 2  
    44   38   39 1  
    45   39   40 1  
    46   39   46 2  
    47   40   41 2  
    48   40   42 am 
    49   42   43 ar 
    50   43   44 ar 
    51   43   45 ar 
    52   45   46 1  
    53    5   47 1  
    54    5   48 1  
    55    6   49 1  
    56    8   50 1  
    57   10   51 1  
    58   11   52 1  
    59   12   53 1  
    60   14   54 1  
    61   19   55 1  
    62   21   56 1  
    63   21   57 1  
    64   22   58 1  
    65   28   59 1  
    66   28   60 1  
    67   29   61 1  
    68   31   62 1  
    69   33   63 1  
    70   34   64 1  
    71   35   65 1  
    72   37   66 1  
    73   42   67 1  
    74   44   68 1  
    75   44   69 1  
    76   45   70 1  
@<TRIPOS>SUBSTRUCTURE
     1 C2E         1

