### 
### Created by X-TOOL on Fri Sep 26 17:34:55 2014
### 

@<TRIPOS>MOLECULE
4h75_ligand
  147   146     1     0     0
SMALL
GAST_HUCK


@<TRIPOS>ATOM
      1 N           7.2660    9.7800   -6.1910 N.4       1 ALA         0.2377
      2 CA          7.6850    9.4970   -4.8200 C.3       1 ALA         0.0621
      3 C           9.1550    9.0930   -4.7930 C.2       1 ALA         0.2264
      4 O           9.7340    8.7830   -5.8350 O.2       1 ALA        -0.3907
      5 CB          6.8210    8.3980   -4.2170 C.3       1 ALA        -0.0040
      6 N           9.7550    9.0990   -3.6050 N.am      1 ALA        -0.2610
      7 CA         11.1550    8.7260   -3.4610 C.3       1 ALA         0.1312
      8 C          11.3330    7.2730   -3.7930 C.2       1 ALA         0.2040
      9 O          10.4280    6.4590   -3.6000 O.2       1 ALA        -0.3944
     10 CB         11.6440    8.9280   -2.0290 C.3       1 ALA        -0.0092
     11 CG         11.7420   10.3520   -1.6250 C.3       1 ALA        -0.0156
     12 CD         12.0970   10.5050   -0.1510 C.3       1 ALA         0.0627
     13 NE         11.8270   11.8890    0.2080 N.pl3     1 ALA        -0.2723
     14 CZ         12.6560   12.8890   -0.0550 C.cat     1 ALA         0.2882
     15 NH1        13.8240   12.6360   -0.6350 N.pl3     1 ALA        -0.2849
     16 NH2        12.3320   14.1320    0.2800 N.pl3     1 ALA        -0.2849
     17 N          12.5170    6.9490   -4.2840 N.am      1 ALA        -0.2613
     18 CA         12.8820    5.5650   -4.4820 C.3       1 ALA         0.1565
     19 C          13.5560    5.0880   -3.2130 C.2       1 ALA         0.2065
     20 O          14.4630    5.7500   -2.6870 O.2       1 ALA        -0.3943
     21 CB         13.8260    5.3990   -5.6760 C.3       1 ALA         0.0924
     22 OG1        13.3130    6.1400   -6.7920 O.3       1 ALA        -0.3874
     23 CG2        13.9420    3.9290   -6.0560 C.3       1 ALA        -0.0346
     24 N          13.0880    3.9530   -2.7070 N.am      1 ALA        -0.2637
     25 CA         13.6820    3.3210   -1.5000 C.3       1 ALA         0.1310
     26 CB         12.7270    2.2170   -1.0480 C.3       1 ALA        -0.0122
     27 CG         12.9920    1.6940    0.3560 C.3       1 ALA        -0.0440
     28 CD         12.6330    2.6950    1.4550 C.3       1 ALA        -0.0123
     29 CE         12.9680    2.0770    2.8090 C.3       1 ALA        -0.0309
     30 NZ         12.7530    2.9800    3.9540 N.4       1 ALA         0.2369
     31 C          15.0190    2.7380   -1.8460 C.2       1 ALA         0.2039
     32 O          15.1500    2.0210   -2.8450 O.2       1 ALA        -0.3944
     33 CM1        13.0960    2.2260    5.1750 C.3       1 ALA        -0.0418
     34 CM2        11.3600    3.4300    4.0390 C.3       1 ALA        -0.0418
     35 CM3        13.6000    4.1740    3.8510 C.3       1 ALA        -0.0418
     36 N          16.0360    3.0600   -1.0490 N.am      1 ALA        -0.2636
     37 CA         17.3330    2.4090   -1.1890 C.3       1 ALA         0.1330
     38 C          17.2600    1.0530   -0.4800 C.2       1 ALA         0.2041
     39 O          16.9870    0.9880    0.7180 O.2       1 ALA        -0.3944
     40 CB         18.4360    3.2750   -0.5770 C.3       1 ALA         0.0045
     41 CG         18.5080    4.6890   -1.1630 C.3       1 ALA         0.0412
     42 CD         19.6580    5.5020   -0.5820 C.2       1 ALA         0.1737
     43 OE1        19.9340    5.4570    0.6250 O.2       1 ALA        -0.3973
     44 NE2        20.3360    6.2420   -1.4400 N.am      1 ALA        -0.3009
     45 N          17.4910   -0.0270   -1.2160 N.am      1 ALA        -0.2613
     46 CA         17.2930   -1.3710   -0.6660 C.3       1 ALA         0.1565
     47 C          18.3910   -1.7600    0.3170 C.2       1 ALA         0.2065
     48 O          18.1920   -2.6150    1.1840 O.2       1 ALA        -0.3943
     49 CB         17.2040   -2.4420   -1.7750 C.3       1 ALA         0.0924
     50 OG1        18.2910   -2.2640   -2.6900 O.3       1 ALA        -0.3874
     51 CG2        15.8760   -2.3340   -2.5310 C.3       1 ALA        -0.0346
     52 N          19.5550   -1.1380    0.1690 N.am      1 ALA        -0.2639
     53 CA         20.6600   -1.3720    1.0870 C.3       1 ALA         0.1282
     54 C          20.9800   -0.0970    1.8540 C.2       1 ALA         0.2031
     55 O          20.6760    1.0070    1.3950 O.2       1 ALA        -0.3944
     56 CB         21.8800   -1.8690    0.3380 C.3       1 ALA        -0.0244
     57 N          21.5990   -0.2510    3.0190 N.am      1 ALA        -0.2695
     58 CA         21.8700    0.8920    3.8810 C.3       1 ALA         0.0945
     59 C          22.8140    0.5440    5.0340 C.2       1 ALA         0.0601
     60 O          23.0500   -0.6270    5.3450 O.co2     1 ALA        -0.5666
     61 CB         20.5590    1.4290    4.4460 C.3       1 ALA        -0.0148
     62 CG         20.1430    0.7630    5.7480 C.3       1 ALA        -0.0162
     63 CD         19.0500   -0.2590    5.5760 C.3       1 ALA         0.0627
     64 NE         18.4230   -0.5600    6.8600 N.pl3     1 ALA        -0.2723
     65 CZ         19.0190   -1.2250    7.8410 C.cat     1 ALA         0.2882
     66 NH1        18.3720   -1.4540    8.9780 N.pl3     1 ALA        -0.2849
     67 NH2        20.2620   -1.6630    7.6860 N.pl3     1 ALA        -0.2849
     68 OXT        23.3560    1.4350    5.6920 O.co2     1 ALA        -0.5666
     69 H1          6.2937   10.0458   -6.1971 H         1 ALA         0.2015
     70 H2          7.3927    8.9562   -6.7579 H         1 ALA         0.2015
     71 H3          7.8225   10.5333   -6.5637 H         1 ALA         0.2015
     72 H4          7.5605   10.4099   -4.2190 H         1 ALA         0.1095
     73 H5          7.1492    8.1976   -3.1864 H         1 ALA         0.0310
     74 H6          6.9203    7.4821   -4.8181 H         1 ALA         0.0310
     75 H7          5.7693    8.7203   -4.2107 H         1 ALA         0.0310
     76 H8          9.2334    9.3652   -2.7944 H         1 ALA         0.1884
     77 H9         11.7599    9.3403   -4.1441 H         1 ALA         0.0800
     78 H10        12.6404    8.4716   -1.9351 H         1 ALA         0.0313
     79 H11        10.9433    8.4220   -1.3486 H         1 ALA         0.0313
     80 H12        10.7740   10.8408   -1.8095 H         1 ALA         0.0301
     81 H13        12.5204   10.8399   -2.2300 H         1 ALA         0.0301
     82 H14        13.1606   10.2738    0.0078 H         1 ALA         0.0689
     83 H15        11.4798    9.8289    0.4588 H         1 ALA         0.0689
     84 H16        10.9438   12.1031    0.6928 H         1 ALA         0.2642
     85 H17        14.4738   13.4077   -0.8427 H         1 ALA         0.2615
     86 H18        14.0799   11.6681   -0.8771 H         1 ALA         0.2615
     87 H19        11.4255   14.3246    0.7296 H         1 ALA         0.2615
     88 H20        12.9871   14.9039    0.0904 H         1 ALA         0.2615
     89 H21        13.1677    7.6703   -4.5212 H         1 ALA         0.1884
     90 H22        11.9739    4.9712   -4.6631 H         1 ALA         0.0826
     91 H23        14.8211    5.7835   -5.4078 H         1 ALA         0.0639
     92 H24        13.8976    6.0382   -7.5340 H         1 ALA         0.2101
     93 H25        14.6223    3.8247   -6.9141 H         1 ALA         0.0257
     94 H26        12.9490    3.5406   -6.3262 H         1 ALA         0.0257
     95 H27        14.3386    3.3598   -5.2024 H         1 ALA         0.0257
     96 H28        12.3106    3.5090   -3.1525 H         1 ALA         0.1883
     97 H29        13.8007    4.0673   -0.7007 H         1 ALA         0.0800
     98 H30        12.8159    1.3758   -1.7511 H         1 ALA         0.0312
     99 H31        11.7018    2.6145   -1.0794 H         1 ALA         0.0312
    100 H32        14.0614    1.4511    0.4415 H         1 ALA         0.0269
    101 H33        12.3956    0.7821    0.5067 H         1 ALA         0.0269
    102 H34        11.5584    2.9253    1.4091 H         1 ALA         0.0317
    103 H35        13.2124    3.6198    1.3169 H         1 ALA         0.0317
    104 H36        14.0265    1.7778    2.7995 H         1 ALA         0.0815
    105 H37        12.3366    1.1871    2.9480 H         1 ALA         0.0815
    106 H38        12.9482    2.8679    6.0560 H         1 ALA         0.0778
    107 H39        14.1477    1.9073    5.1259 H         1 ALA         0.0778
    108 H40        12.4478    1.3407    5.2535 H         1 ALA         0.0778
    109 H41        11.1004    3.9927    3.1302 H         1 ALA         0.0778
    110 H42        11.2371    4.0782    4.9192 H         1 ALA         0.0778
    111 H43        10.6975    2.5567    4.1313 H         1 ALA         0.0778
    112 H44        14.6552    3.8704    3.7853 H         1 ALA         0.0778
    113 H45        13.4546    4.8046    4.7405 H         1 ALA         0.0778
    114 H46        13.3251    4.7420    2.9500 H         1 ALA         0.0778
    115 H47        15.9083    3.7582   -0.3445 H         1 ALA         0.1883
    116 H48        17.5516    2.2534   -2.2558 H         1 ALA         0.0801
    117 H49        19.4024    2.7786   -0.7490 H         1 ALA         0.0337
    118 H50        18.2530    3.3567    0.5046 H         1 ALA         0.0337
    119 H51        17.5633    5.2093   -0.9467 H         1 ALA         0.0504
    120 H52        18.6440    4.6134   -2.2519 H         1 ALA         0.0504
    121 H53        21.1031    6.7995   -1.1225 H         1 ALA         0.1814
    122 H54        20.0824    6.2449   -2.4073 H         1 ALA         0.1814
    123 H55        17.8048    0.0778   -2.1597 H         1 ALA         0.1884
    124 H56        16.3372   -1.3656   -0.1215 H         1 ALA         0.0826
    125 H57        17.2744   -3.4395   -1.3167 H         1 ALA         0.0639
    126 H58        18.2389   -2.9216   -3.3736 H         1 ALA         0.2101
    127 H59        15.8361   -3.1055   -3.3141 H         1 ALA         0.0257
    128 H60        15.7967   -1.3387   -2.9925 H         1 ALA         0.0257
    129 H61        15.0416   -2.4804   -1.8293 H         1 ALA         0.0257
    130 H62        19.6747   -0.4960   -0.5883 H         1 ALA         0.1883
    131 H63        20.3571   -2.1457    1.8079 H         1 ALA         0.0797
    132 H64        22.7022   -2.0394    1.0486 H         1 ALA         0.0277
    133 H65        22.1865   -1.1168   -0.4038 H         1 ALA         0.0277
    134 H66        21.6370   -2.8116   -0.1744 H         1 ALA         0.0277
    135 H67        21.8832   -1.1649    3.3088 H         1 ALA         0.1875
    136 H68        22.3430    1.6771    3.2729 H         1 ALA         0.0726
    137 H69        19.7657    1.2649    3.7018 H         1 ALA         0.0307
    138 H70        20.6739    2.5078    4.6277 H         1 ALA         0.0307
    139 H71        19.7868    1.5411    6.4391 H         1 ALA         0.0301
    140 H72        21.0224    0.2632    6.1803 H         1 ALA         0.0301
    141 H73        19.4797   -1.1814    5.1582 H         1 ALA         0.0689
    142 H74        18.2900    0.1367    4.8863 H         1 ALA         0.0689
    143 H75        17.4575   -0.2357    7.0136 H         1 ALA         0.2642
    144 H76        18.8354   -1.9704    9.7392 H         1 ALA         0.2615
    145 H77        17.4068   -1.1152    9.0986 H         1 ALA         0.2615
    146 H78        20.7643   -1.4857    6.8044 H         1 ALA         0.2615
    147 H79        20.7245   -2.1802    8.4472 H         1 ALA         0.2615
@<TRIPOS>BOND
     1    1    2 1  
     2    2    3 1  
     3    2    5 1  
     4    3    4 2  
     5    3    6 am 
     6    6    7 1  
     7    7    8 1  
     8    7   10 1  
     9    8    9 2  
    10    8   17 am 
    11   10   11 1  
    12   11   12 1  
    13   12   13 1  
    14   13   14 ar 
    15   14   15 ar 
    16   14   16 ar 
    17   17   18 1  
    18   18   19 1  
    19   18   21 1  
    20   19   20 2  
    21   19   24 am 
    22   21   22 1  
    23   21   23 1  
    24   24   25 1  
    25   25   26 1  
    26   25   31 1  
    27   26   27 1  
    28   27   28 1  
    29   28   29 1  
    30   29   30 1  
    31   30   33 1  
    32   30   34 1  
    33   30   35 1  
    34   31   32 2  
    35   31   36 am 
    36   36   37 1  
    37   37   38 1  
    38   37   40 1  
    39   38   39 2  
    40   38   45 am 
    41   40   41 1  
    42   41   42 1  
    43   42   43 2  
    44   42   44 am 
    45   45   46 1  
    46   46   47 1  
    47   46   49 1  
    48   47   48 2  
    49   47   52 am 
    50   49   50 1  
    51   49   51 1  
    52   52   53 1  
    53   53   54 1  
    54   53   56 1  
    55   54   55 2  
    56   54   57 am 
    57   57   58 1  
    58   58   59 1  
    59   58   61 1  
    60   59   60 ar 
    61   59   68 ar 
    62   61   62 1  
    63   62   63 1  
    64   63   64 1  
    65   64   65 ar 
    66   65   66 ar 
    67   65   67 ar 
    68    1   69 1  
    69    1   70 1  
    70    1   71 1  
    71    2   72 1  
    72    5   73 1  
    73    5   74 1  
    74    5   75 1  
    75    6   76 1  
    76    7   77 1  
    77   10   78 1  
    78   10   79 1  
    79   11   80 1  
    80   11   81 1  
    81   12   82 1  
    82   12   83 1  
    83   13   84 1  
    84   15   85 1  
    85   15   86 1  
    86   16   87 1  
    87   16   88 1  
    88   17   89 1  
    89   18   90 1  
    90   21   91 1  
    91   22   92 1  
    92   23   93 1  
    93   23   94 1  
    94   23   95 1  
    95   24   96 1  
    96   25   97 1  
    97   26   98 1  
    98   26   99 1  
    99   27  100 1  
   100   27  101 1  
   101   28  102 1  
   102   28  103 1  
   103   29  104 1  
   104   29  105 1  
   105   33  106 1  
   106   33  107 1  
   107   33  108 1  
   108   34  109 1  
   109   34  110 1  
   110   34  111 1  
   111   35  112 1  
   112   35  113 1  
   113   35  114 1  
   114   36  115 1  
   115   37  116 1  
   116   40  117 1  
   117   40  118 1  
   118   41  119 1  
   119   41  120 1  
   120   44  121 1  
   121   44  122 1  
   122   45  123 1  
   123   46  124 1  
   124   49  125 1  
   125   50  126 1  
   126   51  127 1  
   127   51  128 1  
   128   51  129 1  
   129   52  130 1  
   130   53  131 1  
   131   56  132 1  
   132   56  133 1  
   133   56  134 1  
   134   57  135 1  
   135   58  136 1  
   136   61  137 1  
   137   61  138 1  
   138   62  139 1  
   139   62  140 1  
   140   63  141 1  
   141   63  142 1  
   142   64  143 1  
   143   66  144 1  
   144   66  145 1  
   145   67  146 1  
   146   67  147 1  
@<TRIPOS>SUBSTRUCTURE
     1 ALA         1

