### 
### Created by X-TOOL on Fri Sep 26 17:34:40 2014
### 

@<TRIPOS>MOLECULE
2zkj_ligand
   39    41     1     0     0
SMALL
GAST_HUCK


@<TRIPOS>ATOM
      1 PB        -21.6730    5.2810   26.5140 P.3       1 ADP         0.2069
      2 O1B       -21.0930    5.2840   27.9140 O.co2     1 ADP        -0.5891
      3 O2B       -23.1380    4.7920   26.4160 O.co2     1 ADP        -0.5891
      4 O3B       -21.5700    6.5460   25.8290 O.co2     1 ADP        -0.5891
      5 PA        -19.5600    4.5260   24.6230 P.3       1 ADP         0.3276
      6 O1A       -19.7820    5.6630   23.7150 O.co2     1 ADP        -0.5556
      7 O2A       -18.9730    3.1650   24.1710 O.co2     1 ADP        -0.5556
      8 O3A       -20.7960    4.1770   25.6370 O.3       1 ADP        -0.1548
      9 O5'       -18.4730    5.1310   25.5790 O.3       1 ADP        -0.2436
     10 C5'       -18.0640    4.2960   26.6710 C.3       1 ADP         0.1132
     11 C4'       -17.3060    5.0840   27.7650 C.3       1 ADP         0.1189
     12 O4'       -16.0770    5.6490   27.2800 O.3       1 ADP        -0.3364
     13 C3'       -18.0910    6.2850   28.3200 C.3       1 ADP         0.1149
     14 O3'       -19.0840    5.8490   29.3000 O.3       1 ADP        -0.3864
     15 C2'       -16.9520    7.1270   28.9200 C.3       1 ADP         0.1385
     16 O2'       -16.6770    6.5460   30.1850 O.3       1 ADP        -0.3836
     17 C1'       -15.7060    6.7920   28.0780 C.3       1 ADP         0.2010
     18 N9        -15.5070    7.8820   27.1380 N.pl3     1 ADP        -0.1919
     19 C8        -15.8960    7.8510   25.8440 C.2       1 ADP         0.1123
     20 N7        -15.5480    8.9990   25.2730 N.2       1 ADP        -0.2958
     21 C5        -15.0020    9.7810   26.2320 C.ar      1 ADP         0.1045
     22 C6        -14.4560   11.1190   26.2870 C.ar      1 ADP         0.1298
     23 N6        -14.4640   11.9250   25.1590 N.pl3     1 ADP        -0.3152
     24 N1        -13.9550   11.5320   27.4670 N.ar      1 ADP        -0.2698
     25 C2        -13.9620   10.7930   28.5770 C.ar      1 ADP         0.0533
     26 N3        -14.4340    9.5580   28.6160 N.ar      1 ADP        -0.2714
     27 C4        -14.9620    9.0320   27.4620 C.ar      1 ADP         0.1613
     28 H1        -17.4039    3.5060   26.2835 H         1 ADP         0.0648
     29 H2        -18.9581    3.8392   27.1204 H         1 ADP         0.0648
     30 H3        -17.0878    4.3859   28.5866 H         1 ADP         0.0651
     31 H4        -18.6022    6.8363   27.5171 H         1 ADP         0.0648
     32 H5        -19.6935    5.2492   28.8862 H         1 ADP         0.2100
     33 H6        -17.1798    8.2021   28.9662 H         1 ADP         0.0676
     34 H7        -17.4576    6.5822   30.7253 H         1 ADP         0.2101
     35 H8        -14.8171    6.6075   28.6991 H         1 ADP         0.0996
     36 H9        -16.4080    7.0249   25.3526 H         1 ADP         0.1349
     37 H10       -14.0738   12.8772   25.2036 H         1 ADP         0.1820
     38 H11       -14.8601   11.5716   24.2763 H         1 ADP         0.1820
     39 H12       -13.5630   11.2237   29.4882 H         1 ADP         0.0996
@<TRIPOS>BOND
     1    1    2 ar 
     2    1    3 ar 
     3    1    4 ar 
     4    8    1 1  
     5    5    6 ar 
     6    5    7 ar 
     7    5    8 1  
     8    5    9 1  
     9    9   10 1  
    10   10   11 1  
    11   11   12 1  
    12   11   13 1  
    13   12   17 1  
    14   13   14 1  
    15   13   15 1  
    16   15   16 1  
    17   15   17 1  
    18   17   18 1  
    19   18   19 1  
    20   18   27 1  
    21   19   20 2  
    22   20   21 1  
    23   21   22 ar 
    24   21   27 ar 
    25   22   23 1  
    26   22   24 ar 
    27   24   25 ar 
    28   25   26 ar 
    29   26   27 ar 
    30   10   28 1  
    31   10   29 1  
    32   11   30 1  
    33   13   31 1  
    34   14   32 1  
    35   15   33 1  
    36   16   34 1  
    37   17   35 1  
    38   19   36 1  
    39   23   37 1  
    40   23   38 1  
    41   25   39 1  
@<TRIPOS>SUBSTRUCTURE
     1 ADP         1

