### 
### Created by X-TOOL on Fri Sep 26 17:34:47 2014
### 

@<TRIPOS>MOLECULE
3aaq_ligand
   57    59     1     0     0
SMALL
GAST_HUCK


@<TRIPOS>ATOM
      1 N1         35.3140   25.8890   32.6230 N.ar      1 ARU        -0.2695
      2 C2         34.0220   25.7170   32.6470 C.ar      1 ARU         0.0533
      3 N3         33.1840   26.6220   32.2680 N.ar      1 ARU        -0.2713
      4 C4         33.6440   27.7830   31.8360 C.ar      1 ARU         0.1613
      5 C5         34.9900   28.0300   31.8010 C.ar      1 ARU         0.1049
      6 C6         35.8430   27.0340   32.2190 C.ar      1 ARU         0.1348
      7 N6         37.1500   27.1810   32.2020 N.pl3     1 ARU        -0.2878
      8 N7         35.1490   29.2470   31.3380 N.2       1 ARU        -0.2957
      9 C8         33.9480   29.7430   31.1090 C.2       1 ARU         0.1123
     10 N9         33.0320   28.8490   31.4130 N.pl3     1 ARU        -0.1919
     11 C1'        31.6010   28.9560   31.2930 C.3       1 ARU         0.2010
     12 C2'        30.9810   30.3220   31.4030 C.3       1 ARU         0.1385
     13 O2'        30.8570   30.7030   32.7310 O.3       1 ARU        -0.3836
     14 C3'        29.6330   30.1110   30.7420 C.3       1 ARU         0.1149
     15 O3'        28.6010   29.8920   31.6860 O.3       1 ARU        -0.3864
     16 C4'        29.8520   28.8270   29.9770 C.3       1 ARU         0.1189
     17 O4'        31.2570   28.6560   29.9660 O.3       1 ARU        -0.3364
     18 C5'        29.2850   29.1790   28.6680 C.3       1 ARU         0.1128
     19 O5'        30.2360   29.8450   28.0060 O.3       1 ARU        -0.2475
     20 CAA        37.7680   28.7510   30.4740 C.3       1 ARU        -0.0443
     21 CAB        37.7410   28.4930   31.9600 C.3       1 ARU         0.0299
     22 CAD        38.0140   26.0220   32.3780 C.3       1 ARU         0.0299
     23 CAE        39.3240   26.4220   33.0400 C.3       1 ARU        -0.0443
     24 OAF        27.4530   35.8250   25.7750 O.co2     1 ARU        -0.5597
     25 BRAG       27.7700   33.7750   29.5010 Br        1 ARU        -0.0289
     26 OAH        28.0770   32.8980   25.4370 O.co2     1 ARU        -0.6128
     27 OAI        31.0640   31.5270   26.5360 O.co2     1 ARU        -0.6125
     28 OAJ        27.7730   36.8310   27.8070 O.co2     1 ARU        -0.5597
     29 PAK        27.2550   35.7550   27.1390 P.3       1 ARU         0.1081
     30 CAL        28.1780   34.2130   27.7110 C.3       1 ARU         0.2389
     31 PAM        27.7120   32.6580   26.7770 P.3       1 ARU         0.2068
     32 OAN        28.5940   31.6460   27.5230 O.3       1 ARU        -0.1561
     33 PAO        29.8700   30.8620   26.9250 P.3       1 ARU         0.2953
     34 OAV        25.9190   35.4960   27.4740 O.co2     1 ARU        -0.5597
     35 BRAW       30.0770   34.6190   27.5150 Br        1 ARU        -0.0289
     36 OAX        26.3620   32.3520   26.9140 O.co2     1 ARU        -0.6128
     37 OAY        29.2110   29.9860   25.8300 O.co2     1 ARU        -0.6125
     38 H1         33.6335   24.7693   33.0020 H         1 ARU         0.0996
     39 H2         33.7455   30.7421   30.7260 H         1 ARU         0.1349
     40 H3         31.1352   28.2676   32.0135 H         1 ARU         0.0996
     41 H4         31.5731   31.0748   30.8620 H         1 ARU         0.0676
     42 H5         30.3058   30.0788   33.1882 H         1 ARU         0.2101
     43 H6         29.3731   30.9513   30.0815 H         1 ARU         0.0648
     44 H7         28.5333   30.6459   32.2601 H         1 ARU         0.2100
     45 H8         29.3491   27.9545   30.4194 H         1 ARU         0.0651
     46 H9         28.3968   29.8149   28.7978 H         1 ARU         0.0648
     47 H10        29.0066   28.2681   28.1177 H         1 ARU         0.0648
     48 H11        38.2123   29.7387   30.2814 H         1 ARU         0.0250
     49 H12        36.7417   28.7273   30.0790 H         1 ARU         0.0250
     50 H13        38.3698   27.9753   29.9780 H         1 ARU         0.0250
     51 H14        38.7666   28.5148   32.3571 H         1 ARU         0.0525
     52 H15        37.1384   29.2668   32.4580 H         1 ARU         0.0525
     53 H16        38.2275   25.5783   31.3944 H         1 ARU         0.0525
     54 H17        37.5012   25.2823   33.0104 H         1 ARU         0.0525
     55 H18        39.9594   25.5325   33.1626 H         1 ARU         0.0250
     56 H19        39.1168   26.8633   34.0260 H         1 ARU         0.0250
     57 H20        39.8431   27.1593   32.4100 H         1 ARU         0.0250
@<TRIPOS>BOND
     1    2    1 ar 
     2    6    1 ar 
     3    3    2 ar 
     4    4    3 ar 
     5    4    5 ar 
     6   10    4 1  
     7    5    6 ar 
     8    8    5 1  
     9    6    7 1  
    10    7   21 1  
    11    7   22 1  
    12    9    8 2  
    13   10    9 1  
    14   11   10 1  
    15   11   12 1  
    16   17   11 1  
    17   12   13 1  
    18   14   12 1  
    19   14   15 1  
    20   16   14 1  
    21   16   17 1  
    22   18   16 1  
    23   19   18 1  
    24   33   19 1  
    25   21   20 1  
    26   22   23 1  
    27   29   24 ar 
    28   30   25 1  
    29   31   26 ar 
    30   33   27 ar 
    31   29   28 ar 
    32   30   29 1  
    33   29   34 ar 
    34   31   30 1  
    35   30   35 1  
    36   32   31 1  
    37   31   36 ar 
    38   32   33 1  
    39   33   37 ar 
    40    2   38 1  
    41    9   39 1  
    42   11   40 1  
    43   12   41 1  
    44   13   42 1  
    45   14   43 1  
    46   15   44 1  
    47   16   45 1  
    48   18   46 1  
    49   18   47 1  
    50   20   48 1  
    51   20   49 1  
    52   20   50 1  
    53   21   51 1  
    54   21   52 1  
    55   22   53 1  
    56   22   54 1  
    57   23   55 1  
    58   23   56 1  
    59   23   57 1  
@<TRIPOS>SUBSTRUCTURE
     1 ARU         1

