### 
### Created by X-TOOL on Fri Sep 26 17:35:00 2014
### 

@<TRIPOS>MOLECULE
4ca6_ligand
   87    91     1     0     0
SMALL
GAST_HUCK


@<TRIPOS>ATOM
      1 OAB        -3.3780  -19.2170  -24.0470 O.2       1 3EF        -0.3774
      2 CAH        -6.0450  -22.1200  -18.3190 C.ar      1 3EF        -0.0687
      3 CAK        -6.6400  -22.5630  -19.5020 C.ar      1 3EF        -0.0685
      4 CAL        -4.9170  -21.2930  -18.3480 C.ar      1 3EF        -0.0685
      5 CAQ        -6.1020  -22.1720  -20.7360 C.ar      1 3EF        -0.0578
      6 CAR        -4.3770  -20.9020  -19.5800 C.ar      1 3EF        -0.0578
      7 CBB        -4.4270  -20.9430  -22.0170 C.3       1 3EF         0.1113
      8 OBJ        -4.3310  -19.5110  -22.0050 O.3       1 3EF        -0.2506
      9 CBM        -3.5320  -18.8410  -22.8760 C.2       1 3EF         0.3232
     10 CBP        -4.9670  -21.3430  -20.7770 C.ar      1 3EF        -0.0130
     11 OAD        -0.1880  -17.3580  -21.3500 O.co2     1 3EF        -0.6174
     12 PBY        -0.3800  -17.4140  -22.8210 P.3       1 3EF         0.0154
     13 OAG        -0.2130  -18.7290  -23.4630 O.co2     1 3EF        -0.6174
     14 CBX        -2.0860  -16.8600  -23.2310 C.3       1 3EF         0.1176
     15 NBI        -2.9550  -17.7150  -22.4210 N.am      1 3EF        -0.2418
     16 CBE        -2.3990  -15.3870  -22.8620 C.3       1 3EF         0.0205
     17 CBQ        -3.7560  -15.0530  -23.1400 C.ar      1 3EF        -0.0393
     18 CAS        -4.1510  -14.6450  -24.4150 C.ar      1 3EF        -0.0602
     19 CAM        -5.4850  -14.2990  -24.6880 C.ar      1 3EF        -0.0686
     20 CAI        -6.4570  -14.3680  -23.6870 C.ar      1 3EF        -0.0687
     21 CAN        -6.0700  -14.7810  -22.4110 C.ar      1 3EF        -0.0686
     22 CAT        -4.7350  -15.1180  -22.1340 C.ar      1 3EF        -0.0602
     23 OAC         1.0900  -14.1300  -22.0130 O.2       1 3EF        -0.3964
     24 CAJ         9.4530  -19.0240  -22.0400 C.ar      1 3EF        -0.0626
     25 CAO         8.1090  -19.3960  -21.9360 C.ar      1 3EF        -0.0621
     26 CAP         9.7790  -17.7450  -22.5030 C.ar      1 3EF        -0.0621
     27 CAU         7.1040  -18.4960  -22.3020 C.ar      1 3EF        -0.0551
     28 CAV         8.7690  -16.8540  -22.8610 C.ar      1 3EF        -0.0551
     29 CBA         5.1620  -16.7090  -23.3680 C.2       1 3EF        -0.0269
     30 CBC         2.9490  -15.6610  -24.1550 C.3       1 3EF         0.0422
     31 CBF         0.6150  -16.2310  -23.6640 C.3       1 3EF         0.0375
     32 NBG         6.6570  -15.0930  -23.4330 N.2       1 3EF        -0.1519
     33 OBK         5.1990  -14.5790  -23.9100 O.3       1 3EF        -0.1670
     34 CBN         1.9680  -14.9940  -21.9680 C.2       1 3EF         0.1848
     35 CBS         4.4440  -15.6610  -23.7990 C.2       1 3EF         0.1411
     36 CBT         7.4180  -17.2160  -22.7520 C.ar      1 3EF        -0.0150
     37 CBU         6.4550  -16.3720  -23.1390 C.2       1 3EF         0.0430
     38 CBV         2.0170  -16.0960  -23.0190 C.3       1 3EF         0.0788
     39 N           2.9340  -15.0120  -21.0370 N.am      1 3EF        -0.2694
     40 CA          3.0460  -13.9510  -20.0130 C.3       1 3EF         0.1024
     41 C           3.6130  -12.6760  -20.6570 C.2       1 3EF         0.0619
     42 O           3.5250  -11.6170  -19.9990 O.co2     1 3EF        -0.5665
     43 CB          3.9420  -14.3280  -18.8240 C.3       1 3EF         0.0108
     44 CG          4.9440  -15.2840  -18.9740 C.ar      1 3EF        -0.0499
     45 CD1         6.2810  -14.9080  -19.1420 C.ar      1 3EF        -0.0686
     46 CD2         4.6090  -16.6390  -18.9070 C.ar      1 3EF        -0.0686
     47 CE1         7.2720  -15.8910  -19.2630 C.ar      1 3EF        -0.0398
     48 CE2         5.5910  -17.6180  -19.0230 C.ar      1 3EF        -0.0398
     49 CZ          6.9200  -17.2460  -19.2010 C.ar      1 3EF         0.0805
     50 OH          7.8660  -18.2270  -19.3050 O.3       1 3EF        -0.3376
     51 OXT         4.1180  -12.7850  -21.7980 O.co2     1 3EF        -0.5665
     52 H1         -6.4628  -22.4210  -17.3651 H         1 3EF         0.0559
     53 H2         -7.5125  -23.2053  -19.4664 H         1 3EF         0.0599
     54 H3         -4.4635  -20.9568  -17.4226 H         1 3EF         0.0599
     55 H4         -6.5609  -22.5087  -21.6585 H         1 3EF         0.0557
     56 H5         -3.5044  -20.2595  -19.6101 H         1 3EF         0.0557
     57 H6         -3.4288  -21.3851  -22.1518 H         1 3EF         0.0776
     58 H7         -5.0857  -21.2682  -22.8357 H         1 3EF         0.0776
     59 H8         -2.2742  -17.0081  -24.3046 H         1 3EF         0.0787
     60 H9         -3.1298  -17.4460  -21.4739 H         1 3EF         0.1888
     61 H10        -1.7420  -14.7255  -23.4457 H         1 3EF         0.0465
     62 H11        -2.2079  -15.2396  -21.7888 H         1 3EF         0.0465
     63 H12        -3.4150  -14.5942  -25.2092 H         1 3EF         0.0557
     64 H13        -5.7626  -13.9755  -25.6847 H         1 3EF         0.0599
     65 H14        -7.4880  -14.1068  -23.8963 H         1 3EF         0.0559
     66 H15        -6.8109  -14.8425  -21.6221 H         1 3EF         0.0599
     67 H16        -4.4570  -15.4314  -21.1342 H         1 3EF         0.0557
     68 H17        10.2358  -19.7212  -21.7640 H         1 3EF         0.0610
     69 H18         7.8465  -20.3825  -21.5715 H         1 3EF         0.0615
     70 H19        10.8180  -17.4466  -22.5834 H         1 3EF         0.0615
     71 H20         6.0653  -18.7987  -22.2346 H         1 3EF         0.0616
     72 H21         9.0307  -15.8683  -23.2285 H         1 3EF         0.0616
     73 H22         4.7558  -17.7085  -23.2201 H         1 3EF         0.0289
     74 H23         2.7991  -16.3467  -25.0019 H         1 3EF         0.0513
     75 H24         2.6689  -14.6406  -24.4554 H         1 3EF         0.0513
     76 H25         0.1118  -15.2535  -23.6303 H         1 3EF         0.0495
     77 H26         0.7335  -16.5465  -24.7111 H         1 3EF         0.0495
     78 H27         2.3465  -17.0454  -22.5718 H         1 3EF         0.0581
     79 H28         3.5952  -15.7622  -21.0355 H         1 3EF         0.1876
     80 H29         2.0365  -13.7418  -19.6295 H         1 3EF         0.0747
     81 H30         3.2750  -14.6915  -18.0284 H         1 3EF         0.0446
     82 H31         4.4356  -13.4020  -18.4941 H         1 3EF         0.0446
     83 H32         6.5496  -13.8584  -19.1785 H         1 3EF         0.0530
     84 H33         3.5747  -16.9301  -18.7634 H         1 3EF         0.0530
     85 H34         8.3078  -15.6043  -19.4041 H         1 3EF         0.0525
     86 H35         5.3216  -18.6669  -18.9749 H         1 3EF         0.0525
     87 H36         8.7209  -17.8298  -19.4224 H         1 3EF         0.2458
@<TRIPOS>BOND
     1    9    1 2  
     2    3    2 ar 
     3    4    2 ar 
     4    5    3 ar 
     5    6    4 ar 
     6   10    5 ar 
     7   10    6 ar 
     8    8    7 1  
     9    7   10 1  
    10    9    8 1  
    11   15    9 am 
    12   12   11 ar 
    13   12   13 ar 
    14   12   14 1  
    15   31   12 1  
    16   14   15 1  
    17   14   16 1  
    18   16   17 1  
    19   17   18 ar 
    20   17   22 ar 
    21   18   19 ar 
    22   19   20 ar 
    23   21   20 ar 
    24   22   21 ar 
    25   34   23 2  
    26   25   24 ar 
    27   26   24 ar 
    28   27   25 ar 
    29   28   26 ar 
    30   36   27 ar 
    31   36   28 ar 
    32   29   35 2  
    33   37   29 1  
    34   35   30 1  
    35   30   38 1  
    36   38   31 1  
    37   32   33 1  
    38   37   32 2  
    39   33   35 1  
    40   38   34 1  
    41   34   39 am 
    42   36   37 1  
    43   39   40 1  
    44   40   41 1  
    45   40   43 1  
    46   41   42 ar 
    47   41   51 ar 
    48   43   44 1  
    49   44   45 ar 
    50   44   46 ar 
    51   45   47 ar 
    52   46   48 ar 
    53   47   49 ar 
    54   48   49 ar 
    55   49   50 1  
    56    2   52 1  
    57    3   53 1  
    58    4   54 1  
    59    5   55 1  
    60    6   56 1  
    61    7   57 1  
    62    7   58 1  
    63   14   59 1  
    64   15   60 1  
    65   16   61 1  
    66   16   62 1  
    67   18   63 1  
    68   19   64 1  
    69   20   65 1  
    70   21   66 1  
    71   22   67 1  
    72   24   68 1  
    73   25   69 1  
    74   26   70 1  
    75   27   71 1  
    76   28   72 1  
    77   29   73 1  
    78   30   74 1  
    79   30   75 1  
    80   31   76 1  
    81   31   77 1  
    82   38   78 1  
    83   39   79 1  
    84   40   80 1  
    85   43   81 1  
    86   43   82 1  
    87   45   83 1  
    88   46   84 1  
    89   47   85 1  
    90   48   86 1  
    91   50   87 1  
@<TRIPOS>SUBSTRUCTURE
     1 3EF         1

