### 
### Created by X-TOOL on Fri Sep 26 17:34:10 2014
### 

@<TRIPOS>MOLECULE
6cpa_ligand
   58    59     1     0     0
SMALL
GAST_HUCK


@<TRIPOS>ATOM
      1 O1A        43.3530   21.9810   33.0060 O.co2     1 ZAF        -0.5659
      2 O1B        44.9330   20.7080   33.7910 O.co2     1 ZAF        -0.5659
      3 C1         44.3810   21.7620   33.7870 C.2       1 ZAF         0.0716
      4 C2A        45.8010   23.7200   33.8630 C.3       1 ZAF         0.0245
      5 CP1        45.4530   24.3240   32.6120 C.ar      1 ZAF        -0.0385
      6 CP2        44.9300   25.5720   32.5610 C.ar      1 ZAF        -0.0601
      7 CP3        44.5940   26.1140   31.3700 C.ar      1 ZAF        -0.0686
      8 CP4        44.8270   25.4430   30.2220 C.ar      1 ZAF        -0.0687
      9 CP5        45.3800   24.2100   30.2690 C.ar      1 ZAF        -0.0686
     10 CP6        45.6730   23.6490   31.4630 C.ar      1 ZAF        -0.0601
     11 C2         44.7860   22.8600   34.6250 C.3       1 ZAF         0.1539
     12 O3         45.3620   22.1520   35.7500 O.3       1 ZAF        -0.2587
     13 P3         44.3570   21.6130   37.0050 P.3       1 ZAF         0.1486
     14 O3A        43.1950   20.7680   36.4200 O.co2     1 ZAF        -0.6188
     15 O3B        43.9570   22.8250   37.8750 O.co2     1 ZAF        -0.6188
     16 C4         45.3160   20.6070   38.0430 C.3       1 ZAF         0.1282
     17 C4A        46.5850   21.2440   38.6590 C.3       1 ZAF        -0.0233
     18 N5         45.7960   19.4980   37.2930 N.am      1 ZAF        -0.2644
     19 C6         45.3570   18.2410   37.4320 C.2       1 ZAF         0.2028
     20 O6A        44.3410   18.0080   38.0120 O.2       1 ZAF        -0.3945
     21 C7         46.1970   17.2370   36.8460 C.3       1 ZAF         0.1299
     22 C7A        45.5300   16.7620   35.5390 C.3       1 ZAF        -0.0244
     23 N8         46.5150   16.1430   37.6990 N.am      1 ZAF        -0.2413
     24 C9         47.2360   16.1680   38.8220 C.2       1 ZAF         0.3239
     25 O9A        47.3660   15.1310   39.4080 O.2       1 ZAF        -0.3773
     26 O10        47.7820   17.3100   39.2160 O.3       1 ZAF        -0.2506
     27 C11        48.9620   17.2330   39.9760 C.3       1 ZAF         0.1113
     28 ACP1       49.7750   18.4090   40.1040 C.ar      1 ZAF        -0.0130
     29 ACP2       50.2630   18.9960   38.9920 C.ar      1 ZAF        -0.0578
     30 ACP3       51.0300   20.1000   39.0890 C.ar      1 ZAF        -0.0685
     31 ACP4       51.3450   20.5950   40.3010 C.ar      1 ZAF        -0.0687
     32 ACP5       50.8600   20.0080   41.4110 C.ar      1 ZAF        -0.0685
     33 ACP6       50.0880   18.9060   41.3200 C.ar      1 ZAF        -0.0578
     34 H1         46.0888   24.5392   34.5384 H         1 ZAF         0.0474
     35 H2         46.6742   23.0794   33.6707 H         1 ZAF         0.0474
     36 H3         44.7811   26.1356   33.4749 H         1 ZAF         0.0557
     37 H4         44.1339   27.0949   31.3359 H         1 ZAF         0.0599
     38 H5         44.5722   25.8901   29.2679 H         1 ZAF         0.0559
     39 H6         45.5879   23.6726   29.3508 H         1 ZAF         0.0599
     40 H7         46.0883   22.6483   31.4989 H         1 ZAF         0.0557
     41 H8         43.9337   23.4809   34.9381 H         1 ZAF         0.0854
     42 H9         44.6688   20.2587   38.8614 H         1 ZAF         0.0783
     43 H10        47.0969   20.5036   39.2913 H         1 ZAF         0.0268
     44 H11        46.2995   22.1131   39.2699 H         1 ZAF         0.0268
     45 H12        47.2606   21.5679   37.8536 H         1 ZAF         0.0268
     46 H13        46.5108   19.6690   36.6150 H         1 ZAF         0.1871
     47 H14        47.1504   17.7197   36.5853 H         1 ZAF         0.0796
     48 H15        46.1555   15.9895   35.0679 H         1 ZAF         0.0277
     49 H16        45.4207   17.6143   34.8523 H         1 ZAF         0.0277
     50 H17        44.5381   16.3434   35.7646 H         1 ZAF         0.0277
     51 H18        46.1561   15.2508   37.4248 H         1 ZAF         0.1899
     52 H19        49.5900   16.4526   39.5215 H         1 ZAF         0.0776
     53 H20        48.6737   16.9260   40.9922 H         1 ZAF         0.0776
     54 H21        50.0376   18.5786   38.0173 H         1 ZAF         0.0557
     55 H22        51.3930   20.5890   38.1922 H         1 ZAF         0.0599
     56 H23        51.9876   21.4641   40.3826 H         1 ZAF         0.0559
     57 H24        51.0916   20.4240   42.3849 H         1 ZAF         0.0599
     58 H25        49.7208   18.4220   42.2178 H         1 ZAF         0.0557
@<TRIPOS>BOND
     1    3    1 ar 
     2   11    3 1  
     3    4    5 1  
     4   11    4 1  
     5    5    6 ar 
     6    5   10 ar 
     7    6    7 ar 
     8    7    8 ar 
     9    8    9 ar 
    10    9   10 ar 
    11   11   12 1  
    12   12   13 1  
    13   13   14 ar 
    14   13   15 ar 
    15   13   16 1  
    16   16   17 1  
    17   16   18 1  
    18   18   19 am 
    19   19   20 2  
    20   19   21 1  
    21   21   22 1  
    22   21   23 1  
    23   23   24 am 
    24   24   25 2  
    25   24   26 1  
    26   26   27 1  
    27   27   28 1  
    28   28   29 ar 
    29   28   33 ar 
    30   29   30 ar 
    31   30   31 ar 
    32   31   32 ar 
    33   32   33 ar 
    34    3    2 ar 
    35    4   34 1  
    36    4   35 1  
    37    6   36 1  
    38    7   37 1  
    39    8   38 1  
    40    9   39 1  
    41   10   40 1  
    42   11   41 1  
    43   16   42 1  
    44   17   43 1  
    45   17   44 1  
    46   17   45 1  
    47   18   46 1  
    48   21   47 1  
    49   22   48 1  
    50   22   49 1  
    51   22   50 1  
    52   23   51 1  
    53   27   52 1  
    54   27   53 1  
    55   29   54 1  
    56   30   55 1  
    57   31   56 1  
    58   32   57 1  
    59   33   58 1  
@<TRIPOS>SUBSTRUCTURE
     1 ZAF         1

