REMARK  1 active torsions:
REMARK  status: ('A' for Active; 'I' for Inactive)
REMARK    1  A    between atoms: C1_1  and  O1_2 
ROOT
ATOM      1  C1  MOL d          23.225   7.597  11.367  0.00  0.00     0.066 A 
ATOM      2  C2  MOL d          23.189   6.225  11.099  0.00  0.00     0.039 A 
ATOM      3  C3  MOL d          23.013   5.298  12.127  0.00  0.00     0.033 A 
ATOM      4  C4  MOL d          22.873   5.760  13.434  0.00  0.00     0.044 A 
ATOM      5  C5  MOL d          22.911   7.120  13.682  0.00  0.00     0.006 A 
ATOM      6  C6  MOL d          23.084   8.065  12.674  0.00  0.00     0.051 A 
ATOM      7  N7  MOL d          22.690   5.154  14.651  0.00  0.00    -0.354 N 
ATOM      8  C8  MOL d          22.604   6.056  15.685  0.00  0.00     0.051 A 
ATOM      9  C9  MOL d          22.739   7.313  15.126  0.00  0.00     0.011 A 
ATOM     10  C10 MOL d          22.421   5.936  17.059  0.00  0.00    -0.023 A 
ATOM     11  C11 MOL d          22.275   4.560  17.668  0.00  0.00     0.051 C 
ATOM     12  C12 MOL d          22.380   7.093  17.850  0.00  0.00    -0.011 A 
ATOM     13  C13 MOL d          22.521   8.374  17.273  0.00  0.00     0.036 A 
ATOM     14  C14 MOL d          22.704   8.492  15.879  0.00  0.00    -0.033 A 
ATOM     15  C15 MOL d          22.864   9.834  15.194  0.00  0.00     0.050 C 
ATOM     16  C16 MOL d          22.202   6.982  19.232  0.00  0.00     0.030 A 
ATOM     17  C17 MOL d          22.161   8.128  20.023  0.00  0.00     0.091 A 
ATOM     18  N18 MOL d          22.293   9.341  19.458  0.00  0.00    -0.344 N 
ATOM     19  C19 MOL d          22.470   9.492  18.131  0.00  0.00     0.190 A 
ATOM     20  O19 MOL d          22.593  10.762  17.649  0.00  0.00    -0.171 OA
ATOM     21  H5  MOL d          22.624   4.134  14.777  0.00  0.00     0.166 HD
ATOM     22  H14 MOL d          22.259  10.154  20.039  0.00  0.00     0.167 HD
ENDROOT
BRANCH   1  23
ATOM     23  O1  MOL d          23.396   8.482  10.342  0.00  0.00    -0.361 OA
ATOM     24  H1  MOL d          23.398   9.367  10.687  0.00  0.00     0.217 HD
ENDBRANCH   1  23
TORSDOF 1
