### 
### Created by X-TOOL on Fri Sep 26 17:34:18 2014
### 

@<TRIPOS>MOLECULE
1hi3_ligand
   38    40     1     0     0
SMALL
GAST_HUCK


@<TRIPOS>ATOM
      1 P1         14.8530   14.4520    9.7070 P.3       1 A2P         0.2015
      2 O1P        14.2360   15.2030   10.8760 O.co2     1 A2P        -0.5537
      3 O2P        13.8430   13.6100    8.9450 O.co2     1 A2P        -0.5537
      4 O3P        16.1030   13.6840   10.0890 O.co2     1 A2P        -0.5537
      5 P2         10.3480   16.8950    7.2600 P.3       1 A2P         0.2008
      6 O4P        10.1840   16.3180    8.6630 O.co2     1 A2P        -0.5537
      7 O5P         9.6100   18.2180    7.0800 O.co2     1 A2P        -0.5537
      8 O6P        10.0450   15.8780    6.1620 O.co2     1 A2P        -0.5537
      9 O5'        11.9310   17.2670    7.1120 O.3       1 A2P        -0.2734
     10 C5'        12.5150   17.5560    5.8240 C.3       1 A2P         0.1072
     11 C4'        14.0250   17.5840    5.9390 C.3       1 A2P         0.1185
     12 O4'        14.4100   18.5880    6.9230 O.3       1 A2P        -0.3362
     13 C3'        14.6400   16.2880    6.4470 C.3       1 A2P         0.1196
     14 O3'        15.9970   16.2550    6.0240 O.3       1 A2P        -0.3860
     15 C2'        14.5390   16.4700    7.9580 C.3       1 A2P         0.1722
     16 O2'        15.3980   15.5800    8.6610 O.3       1 A2P        -0.2647
     17 C1'        14.8980   17.9510    8.0960 C.3       1 A2P         0.2057
     18 N9         14.3030   18.6300    9.2510 N.pl3     1 A2P        -0.1916
     19 C8         13.1070   18.3710    9.8870 C.2       1 A2P         0.1123
     20 N7         12.8470   19.1930   10.8770 N.2       1 A2P        -0.2958
     21 C5         13.9470   20.0470   10.9000 C.ar      1 A2P         0.1045
     22 C6         14.2940   21.1580   11.7230 C.ar      1 A2P         0.1298
     23 N6         13.5260   21.6210   12.7120 N.pl3     1 A2P        -0.3152
     24 N1         15.4770   21.7830   11.4790 N.ar      1 A2P        -0.2698
     25 C2         16.2560   21.3250   10.4820 C.ar      1 A2P         0.0533
     26 N3         16.0360   20.3040    9.6460 N.ar      1 A2P        -0.2714
     27 C4         14.8550   19.7020    9.9100 C.ar      1 A2P         0.1613
     28 H1         12.2180   16.7777    5.1057 H         1 A2P         0.0639
     29 H2         12.1574   18.5351    5.4726 H         1 A2P         0.0639
     30 H3         14.4475   17.8281    4.9531 H         1 A2P         0.0650
     31 H4         14.0993   15.3949    6.1006 H         1 A2P         0.0651
     32 H5         16.4421   15.5307    6.4479 H         1 A2P         0.2100
     33 H6         13.5097   16.2950    8.3041 H         1 A2P         0.0732
     34 H7         15.9920   18.0476    8.1578 H         1 A2P         0.1000
     35 H8         12.4407   17.5605    9.5953 H         1 A2P         0.1349
     36 H9         13.8364   22.4293   13.2698 H         1 A2P         0.1820
     37 H10        12.6231   21.1699   12.9172 H         1 A2P         0.1820
     38 H11        17.1897   21.8561   10.3363 H         1 A2P         0.0996
@<TRIPOS>BOND
     1    1   16 1  
     2    1    4 ar 
     3    1    3 ar 
     4    1    2 ar 
     5   16   15 1  
     6   15   17 1  
     7   15   13 1  
     8   13   14 1  
     9   13   11 1  
    10   11   12 1  
    11   11   10 1  
    12   10    9 1  
    13    9    5 1  
    14    5    8 ar 
    15    5    7 ar 
    16    5    6 ar 
    17   12   17 1  
    18   17   18 1  
    19   18   19 1  
    20   18   27 1  
    21   27   26 ar 
    22   27   21 ar 
    23   21   22 ar 
    24   21   20 1  
    25   20   19 2  
    26   22   23 1  
    27   22   24 ar 
    28   24   25 ar 
    29   25   26 ar 
    30   10   28 1  
    31   10   29 1  
    32   11   30 1  
    33   13   31 1  
    34   14   32 1  
    35   15   33 1  
    36   17   34 1  
    37   19   35 1  
    38   23   36 1  
    39   23   37 1  
    40   25   38 1  
@<TRIPOS>SUBSTRUCTURE
     1 A2P         1

